                                   MODFLOW 6
                U.S. GEOLOGICAL SURVEY MODULAR HYDROLOGIC MODEL
                          GROUNDWATER FLOW MODEL (GWF)
                            VERSION 6.0.4 03/13/2019

   MODFLOW 6 compiled Mar 21 2019 15:37:31 with IFORT compiler (ver. 19.0.0)

This software has been approved for release by the U.S. Geological 
Survey (USGS). Although the software has been subjected to rigorous 
review, the USGS reserves the right to update the software as needed 
pursuant to further analysis and review. No warranty, expressed or 
implied, is made by the USGS or the U.S. Government as to the 
functionality of the software and related material nor shall the 
fact of release constitute any such warranty. Furthermore, the 
software is released on condition that neither the USGS nor the U.S. 
Government shall be held liable for any damages resulting from its 
authorized or unauthorized use. Also refer to the USGS Water 
Resources Software User Rights Notice for complete use, copyright, 
and distribution information.


MODFLOW was compiled using uniform precision.
Precision of REAL variables: 15


 OPENED test_pst.dis
 FILE TYPE:DIS6                   UNIT 1005   STATUS:OLD                 
 FORMAT:FORMATTED              ACCESS:SEQUENTIAL          
 ACTION:READ                


 OPENED test_pst.ic
 FILE TYPE:IC6                    UNIT 1006   STATUS:OLD                 
 FORMAT:FORMATTED              ACCESS:SEQUENTIAL          
 ACTION:READ                


 OPENED test_pst.oc
 FILE TYPE:OC6                    UNIT 1007   STATUS:OLD                 
 FORMAT:FORMATTED              ACCESS:SEQUENTIAL          
 ACTION:READ                


 OPENED test_pst.npf
 FILE TYPE:NPF6                   UNIT 1008   STATUS:OLD                 
 FORMAT:FORMATTED              ACCESS:SEQUENTIAL          
 ACTION:READ                


 OPENED test_pst.rcha
 FILE TYPE:RCH6                   UNIT 1009   STATUS:OLD                 
 FORMAT:FORMATTED              ACCESS:SEQUENTIAL          
 ACTION:READ                


 OPENED bc.chd
 FILE TYPE:CHD6                   UNIT 1010   STATUS:OLD                 
 FORMAT:FORMATTED              ACCESS:SEQUENTIAL          
 ACTION:READ                


 OPENED test_pst.obs
 FILE TYPE:OBS6                   UNIT 1011   STATUS:OLD                 
 FORMAT:FORMATTED              ACCESS:SEQUENTIAL          
 ACTION:READ                


 DIS -- STRUCTURED GRID DISCRETIZATION PACKAGE, VERSION 2 : 3/27/2014 - INPUT READ FROM UNIT 1005


 PROCESSING DISCRETIZATION OPTIONS
 END OF DISCRETIZATION OPTIONS
 MODEL LENGTH UNIT IS UNDEFINED
 PROCESSING DISCRETIZATION DIMENSIONS
    NLAY =       1
    NROW =     100
    NCOL =     100
 END OF DISCRETIZATION DIMENSIONS
 PROCESSING GRIDDATA

                     DELR =   1.000000    

                     DELC =   1.000000    

 TOP ELEVATION OF LAYER 1 =   10.00000    

   MODEL LAYER BOTTOM EL. =   0.000000    
 END PROCESSING GRIDDATA

 NPF -- NODE PROPERTY FLOW PACKAGE, VERSION 1, 3/30/2015 INPUT READ FROM UNIT 1008


 PROCESSING NPF OPTIONS
    CELL-BY-CELL FLOW INFORMATION WILL BE SAVED TO BINARY FILE WHENEVER ICBCFL IS NOT ZERO.
 END OF NPF OPTIONS

 RCH   -- RCH PACKAGE, VERSION 8, 2/22/2014 INPUT READ FROM UNIT 1009

 PROCESSING RCH OPTIONS
    RECHARGE INPUT WILL BE READ AS ARRAY(S).
    FLOWS WILL BE SAVED TO BUDGET FILE SPECIFIED IN OUTPUT CONTROL
 END OF RCH OPTIONS

 CHD   -- CHD PACKAGE, VERSION 8, 2/22/2014 INPUT READ FROM UNIT 1010

 PROCESSING CHD OPTIONS
    FLOWS WILL BE SAVED TO BUDGET FILE SPECIFIED IN OUTPUT CONTROL
 END OF CHD OPTIONS

 PROCESSING CHD DIMENSIONS
    MAXBOUND =     200
 END OF CHD DIMENSIONS

 IC -- INITIAL CONDITIONS PACKAGE, VERSION 8, 3/28/2015 INPUT READ FROM UNIT 1006
 PROCESSING GRIDDATA

     INITIAL HEAD =   1.000000    
 END PROCESSING GRIDDATA
 PROCESSING GRIDDATA

                ICELLTYPE = 0

 OPENED k.txt
 FILE TYPE:OPEN/CLOSE   UNIT 1013   STATUS:OLD                 
 FORMAT:FORMATTED              ACCESS:SEQUENTIAL          
 ACTION:READ                

 K33 not provided.  Assuming K33 = K.
 K22 not provided.  Assuming K22 = K.
 END PROCESSING GRIDDATA

The observation utility is active for "TEST_PST"

Processing observation options:

Text output number of digits of precision set to: 10
The PRINT_INPUT option has been specified.


Observations read from file "test_pst.obs":
Name                                      Type                             Time         Location data
----------------------------------------  -------------------------------  -----------  --------------------------
0_1_1                                     Continuous HEAD                  All times    "1 2 2"
0_1_8                                     Continuous HEAD                  All times    "1 2 9"
0_1_15                                    Continuous HEAD                  All times    "1 2 16"
0_1_22                                    Continuous HEAD                  All times    "1 2 23"
0_1_29                                    Continuous HEAD                  All times    "1 2 30"
0_1_36                                    Continuous HEAD                  All times    "1 2 37"
0_1_43                                    Continuous HEAD                  All times    "1 2 44"
0_1_50                                    Continuous HEAD                  All times    "1 2 51"
0_1_57                                    Continuous HEAD                  All times    "1 2 58"
0_1_64                                    Continuous HEAD                  All times    "1 2 65"
0_1_71                                    Continuous HEAD                  All times    "1 2 72"
0_1_78                                    Continuous HEAD                  All times    "1 2 79"
0_1_85                                    Continuous HEAD                  All times    "1 2 86"
0_1_92                                    Continuous HEAD                  All times    "1 2 93"
0_8_1                                     Continuous HEAD                  All times    "1 9 2"
0_8_8                                     Continuous HEAD                  All times    "1 9 9"
0_8_15                                    Continuous HEAD                  All times    "1 9 16"
0_8_22                                    Continuous HEAD                  All times    "1 9 23"
0_8_29                                    Continuous HEAD                  All times    "1 9 30"
0_8_36                                    Continuous HEAD                  All times    "1 9 37"
0_8_43                                    Continuous HEAD                  All times    "1 9 44"
0_8_50                                    Continuous HEAD                  All times    "1 9 51"
0_8_57                                    Continuous HEAD                  All times    "1 9 58"
0_8_64                                    Continuous HEAD                  All times    "1 9 65"
0_8_71                                    Continuous HEAD                  All times    "1 9 72"
0_8_78                                    Continuous HEAD                  All times    "1 9 79"
0_8_85                                    Continuous HEAD                  All times    "1 9 86"
0_8_92                                    Continuous HEAD                  All times    "1 9 93"
0_15_1                                    Continuous HEAD                  All times    "1 16 2"
0_15_8                                    Continuous HEAD                  All times    "1 16 9"
0_15_15                                   Continuous HEAD                  All times    "1 16 16"
0_15_22                                   Continuous HEAD                  All times    "1 16 23"
0_15_29                                   Continuous HEAD                  All times    "1 16 30"
0_15_36                                   Continuous HEAD                  All times    "1 16 37"
0_15_43                                   Continuous HEAD                  All times    "1 16 44"
0_15_50                                   Continuous HEAD                  All times    "1 16 51"
0_15_57                                   Continuous HEAD                  All times    "1 16 58"
0_15_64                                   Continuous HEAD                  All times    "1 16 65"
0_15_71                                   Continuous HEAD                  All times    "1 16 72"
0_15_78                                   Continuous HEAD                  All times    "1 16 79"
0_15_85                                   Continuous HEAD                  All times    "1 16 86"
0_15_92                                   Continuous HEAD                  All times    "1 16 93"
0_22_1                                    Continuous HEAD                  All times    "1 23 2"
0_22_8                                    Continuous HEAD                  All times    "1 23 9"
0_22_15                                   Continuous HEAD                  All times    "1 23 16"
0_22_22                                   Continuous HEAD                  All times    "1 23 23"
0_22_29                                   Continuous HEAD                  All times    "1 23 30"
0_22_36                                   Continuous HEAD                  All times    "1 23 37"
0_22_43                                   Continuous HEAD                  All times    "1 23 44"
0_22_50                                   Continuous HEAD                  All times    "1 23 51"
0_22_57                                   Continuous HEAD                  All times    "1 23 58"
0_22_64                                   Continuous HEAD                  All times    "1 23 65"
0_22_71                                   Continuous HEAD                  All times    "1 23 72"
0_22_78                                   Continuous HEAD                  All times    "1 23 79"
0_22_85                                   Continuous HEAD                  All times    "1 23 86"
0_22_92                                   Continuous HEAD                  All times    "1 23 93"
0_29_1                                    Continuous HEAD                  All times    "1 30 2"
0_29_8                                    Continuous HEAD                  All times    "1 30 9"
0_29_15                                   Continuous HEAD                  All times    "1 30 16"
0_29_22                                   Continuous HEAD                  All times    "1 30 23"
0_29_29                                   Continuous HEAD                  All times    "1 30 30"
0_29_36                                   Continuous HEAD                  All times    "1 30 37"
0_29_43                                   Continuous HEAD                  All times    "1 30 44"
0_29_50                                   Continuous HEAD                  All times    "1 30 51"
0_29_57                                   Continuous HEAD                  All times    "1 30 58"
0_29_64                                   Continuous HEAD                  All times    "1 30 65"
0_29_71                                   Continuous HEAD                  All times    "1 30 72"
0_29_78                                   Continuous HEAD                  All times    "1 30 79"
0_29_85                                   Continuous HEAD                  All times    "1 30 86"
0_29_92                                   Continuous HEAD                  All times    "1 30 93"
0_36_1                                    Continuous HEAD                  All times    "1 37 2"
0_36_8                                    Continuous HEAD                  All times    "1 37 9"
0_36_15                                   Continuous HEAD                  All times    "1 37 16"
0_36_22                                   Continuous HEAD                  All times    "1 37 23"
0_36_29                                   Continuous HEAD                  All times    "1 37 30"
0_36_36                                   Continuous HEAD                  All times    "1 37 37"
0_36_43                                   Continuous HEAD                  All times    "1 37 44"
0_36_50                                   Continuous HEAD                  All times    "1 37 51"
0_36_57                                   Continuous HEAD                  All times    "1 37 58"
0_36_64                                   Continuous HEAD                  All times    "1 37 65"
0_36_71                                   Continuous HEAD                  All times    "1 37 72"
0_36_78                                   Continuous HEAD                  All times    "1 37 79"
0_36_85                                   Continuous HEAD                  All times    "1 37 86"
0_36_92                                   Continuous HEAD                  All times    "1 37 93"
0_43_1                                    Continuous HEAD                  All times    "1 44 2"
0_43_8                                    Continuous HEAD                  All times    "1 44 9"
0_43_15                                   Continuous HEAD                  All times    "1 44 16"
0_43_22                                   Continuous HEAD                  All times    "1 44 23"
0_43_29                                   Continuous HEAD                  All times    "1 44 30"
0_43_36                                   Continuous HEAD                  All times    "1 44 37"
0_43_43                                   Continuous HEAD                  All times    "1 44 44"
0_43_50                                   Continuous HEAD                  All times    "1 44 51"
0_43_57                                   Continuous HEAD                  All times    "1 44 58"
0_43_64                                   Continuous HEAD                  All times    "1 44 65"
0_43_71                                   Continuous HEAD                  All times    "1 44 72"
0_43_78                                   Continuous HEAD                  All times    "1 44 79"
0_43_85                                   Continuous HEAD                  All times    "1 44 86"
0_43_92                                   Continuous HEAD                  All times    "1 44 93"
0_50_1                                    Continuous HEAD                  All times    "1 51 2"
0_50_8                                    Continuous HEAD                  All times    "1 51 9"
0_50_15                                   Continuous HEAD                  All times    "1 51 16"
0_50_22                                   Continuous HEAD                  All times    "1 51 23"
0_50_29                                   Continuous HEAD                  All times    "1 51 30"
0_50_36                                   Continuous HEAD                  All times    "1 51 37"
0_50_43                                   Continuous HEAD                  All times    "1 51 44"
0_50_50                                   Continuous HEAD                  All times    "1 51 51"
0_50_57                                   Continuous HEAD                  All times    "1 51 58"
0_50_64                                   Continuous HEAD                  All times    "1 51 65"
0_50_71                                   Continuous HEAD                  All times    "1 51 72"
0_50_78                                   Continuous HEAD                  All times    "1 51 79"
0_50_85                                   Continuous HEAD                  All times    "1 51 86"
0_50_92                                   Continuous HEAD                  All times    "1 51 93"
0_57_1                                    Continuous HEAD                  All times    "1 58 2"
0_57_8                                    Continuous HEAD                  All times    "1 58 9"
0_57_15                                   Continuous HEAD                  All times    "1 58 16"
0_57_22                                   Continuous HEAD                  All times    "1 58 23"
0_57_29                                   Continuous HEAD                  All times    "1 58 30"
0_57_36                                   Continuous HEAD                  All times    "1 58 37"
0_57_43                                   Continuous HEAD                  All times    "1 58 44"
0_57_50                                   Continuous HEAD                  All times    "1 58 51"
0_57_57                                   Continuous HEAD                  All times    "1 58 58"
0_57_64                                   Continuous HEAD                  All times    "1 58 65"
0_57_71                                   Continuous HEAD                  All times    "1 58 72"
0_57_78                                   Continuous HEAD                  All times    "1 58 79"
0_57_85                                   Continuous HEAD                  All times    "1 58 86"
0_57_92                                   Continuous HEAD                  All times    "1 58 93"
0_64_1                                    Continuous HEAD                  All times    "1 65 2"
0_64_8                                    Continuous HEAD                  All times    "1 65 9"
0_64_15                                   Continuous HEAD                  All times    "1 65 16"
0_64_22                                   Continuous HEAD                  All times    "1 65 23"
0_64_29                                   Continuous HEAD                  All times    "1 65 30"
0_64_36                                   Continuous HEAD                  All times    "1 65 37"
0_64_43                                   Continuous HEAD                  All times    "1 65 44"
0_64_50                                   Continuous HEAD                  All times    "1 65 51"
0_64_57                                   Continuous HEAD                  All times    "1 65 58"
0_64_64                                   Continuous HEAD                  All times    "1 65 65"
0_64_71                                   Continuous HEAD                  All times    "1 65 72"
0_64_78                                   Continuous HEAD                  All times    "1 65 79"
0_64_85                                   Continuous HEAD                  All times    "1 65 86"
0_64_92                                   Continuous HEAD                  All times    "1 65 93"
0_71_1                                    Continuous HEAD                  All times    "1 72 2"
0_71_8                                    Continuous HEAD                  All times    "1 72 9"
0_71_15                                   Continuous HEAD                  All times    "1 72 16"
0_71_22                                   Continuous HEAD                  All times    "1 72 23"
0_71_29                                   Continuous HEAD                  All times    "1 72 30"
0_71_36                                   Continuous HEAD                  All times    "1 72 37"
0_71_43                                   Continuous HEAD                  All times    "1 72 44"
0_71_50                                   Continuous HEAD                  All times    "1 72 51"
0_71_57                                   Continuous HEAD                  All times    "1 72 58"
0_71_64                                   Continuous HEAD                  All times    "1 72 65"
0_71_71                                   Continuous HEAD                  All times    "1 72 72"
0_71_78                                   Continuous HEAD                  All times    "1 72 79"
0_71_85                                   Continuous HEAD                  All times    "1 72 86"
0_71_92                                   Continuous HEAD                  All times    "1 72 93"
0_78_1                                    Continuous HEAD                  All times    "1 79 2"
0_78_8                                    Continuous HEAD                  All times    "1 79 9"
0_78_15                                   Continuous HEAD                  All times    "1 79 16"
0_78_22                                   Continuous HEAD                  All times    "1 79 23"
0_78_29                                   Continuous HEAD                  All times    "1 79 30"
0_78_36                                   Continuous HEAD                  All times    "1 79 37"
0_78_43                                   Continuous HEAD                  All times    "1 79 44"
0_78_50                                   Continuous HEAD                  All times    "1 79 51"
0_78_57                                   Continuous HEAD                  All times    "1 79 58"
0_78_64                                   Continuous HEAD                  All times    "1 79 65"
0_78_71                                   Continuous HEAD                  All times    "1 79 72"
0_78_78                                   Continuous HEAD                  All times    "1 79 79"
0_78_85                                   Continuous HEAD                  All times    "1 79 86"
0_78_92                                   Continuous HEAD                  All times    "1 79 93"
0_85_1                                    Continuous HEAD                  All times    "1 86 2"
0_85_8                                    Continuous HEAD                  All times    "1 86 9"
0_85_15                                   Continuous HEAD                  All times    "1 86 16"
0_85_22                                   Continuous HEAD                  All times    "1 86 23"
0_85_29                                   Continuous HEAD                  All times    "1 86 30"
0_85_36                                   Continuous HEAD                  All times    "1 86 37"
0_85_43                                   Continuous HEAD                  All times    "1 86 44"
0_85_50                                   Continuous HEAD                  All times    "1 86 51"
0_85_57                                   Continuous HEAD                  All times    "1 86 58"
0_85_64                                   Continuous HEAD                  All times    "1 86 65"
0_85_71                                   Continuous HEAD                  All times    "1 86 72"
0_85_78                                   Continuous HEAD                  All times    "1 86 79"
0_85_85                                   Continuous HEAD                  All times    "1 86 86"
0_85_92                                   Continuous HEAD                  All times    "1 86 93"
0_92_1                                    Continuous HEAD                  All times    "1 93 2"
0_92_8                                    Continuous HEAD                  All times    "1 93 9"
0_92_15                                   Continuous HEAD                  All times    "1 93 16"
0_92_22                                   Continuous HEAD                  All times    "1 93 23"
0_92_29                                   Continuous HEAD                  All times    "1 93 30"
0_92_36                                   Continuous HEAD                  All times    "1 93 37"
0_92_43                                   Continuous HEAD                  All times    "1 93 44"
0_92_50                                   Continuous HEAD                  All times    "1 93 51"
0_92_57                                   Continuous HEAD                  All times    "1 93 58"
0_92_64                                   Continuous HEAD                  All times    "1 93 65"
0_92_71                                   Continuous HEAD                  All times    "1 93 72"
0_92_78                                   Continuous HEAD                  All times    "1 93 79"
0_92_85                                   Continuous HEAD                  All times    "1 93 86"
0_92_92                                   Continuous HEAD                  All times    "1 93 93"
    BINARY GRID INFORMATION WILL BE WRITTEN TO:
      UNIT NUMBER: 1015
      FILE NAME: M:\GitHub\FloPy-guide-\notebooks\fr\PyEmu\Pilot_points\master_glm\test_pst.dis.grb

 OPENED M:\GitHub\FloPy-guide-\notebooks\fr\PyEmu\Pilot_points\master_glm\test_pst.dis.grb
 FILE TYPE:DATA(BINARY)   UNIT 1015   STATUS:REPLACE             
 FORMAT:UNFORMATTED            ACCESS:STREAM              
 ACTION:READWRITE           

      THE LAST TIME STEP WILL BE PRINTED
      THE LAST TIME STEP WILL BE PRINTED
 PROCESSING OC OPTIONS
    BUDGET INFORMATION WILL BE WRITTEN TO:
      UNIT NUMBER: 1016
      FILE NAME: test_pst.cbc

 OPENED test_pst.cbc
 FILE TYPE:DATA(BINARY)   UNIT 1016   STATUS:REPLACE             
 FORMAT:UNFORMATTED            ACCESS:STREAM              
 ACTION:READWRITE           

    HEAD INFORMATION WILL BE WRITTEN TO:
      UNIT NUMBER: 1017
      FILE NAME: test_pst.hds

 OPENED test_pst.hds
 FILE TYPE:DATA(BINARY)   UNIT 1017   STATUS:REPLACE             
 FORMAT:UNFORMATTED            ACCESS:STREAM              
 ACTION:READWRITE           

 END OF OC OPTIONS

 BEGIN READING OUTPUT CONTROL FOR STRESS PERIOD 1
      THE LAST TIME STEP WILL BE SAVED
      THE LAST TIME STEP WILL BE SAVED
      ALL TIME STEPS WILL BE PRINTED

 END READING OUTPUT CONTROL FOR STRESS PERIOD 1

                 RECHARGE =  0.3170979E-07
 UBDSV1 SAVING     FLOW-JA-FACE ON UNIT   1016 AT TIME STEP      1, STRESS PERIOD      1
 UBDSV06 SAVING              RCH IN MODEL TEST_PST         PACKAGE TEST_PST        CONNECTED TO MODEL TEST_PST         PACKAGE RCHA             ON UNIT   1016 AT TIME STEP      1, STRESS PERIOD      1
 UBDSV06 SAVING              CHD IN MODEL TEST_PST         PACKAGE TEST_PST        CONNECTED TO MODEL TEST_PST         PACKAGE CHD              ON UNIT   1016 AT TIME STEP      1, STRESS PERIOD      1
1
  HEAD IN LAYER   1 AT END OF TIME STEP   1 IN STRESS PERIOD    1
  ---------------------------------------------------------------------------

            1           2           3           4           5           6           7           8           9          10
           11          12          13          14          15          16          17          18          19          20
           21          22          23          24          25          26          27          28          29          30
           31          32          33          34          35          36          37          38          39          40
           41          42          43          44          45          46          47          48          49          50
           51          52          53          54          55          56          57          58          59          60
           61          62          63          64          65          66          67          68          69          70
           71          72          73          74          75          76          77          78          79          80
           81          82          83          84          85          86          87          88          89          90
           91          92          93          94          95          96          97          98          99         100
 ........................................................................................................................
   1    10.00       9.838       9.676       9.514       9.352       9.191       9.032       8.873       8.716       8.561    
        8.407       8.256       8.105       7.954       7.803       7.651       7.498       7.344       7.190       7.037    
        6.884       6.733       6.584       6.437       6.294       6.154       6.019       5.889       5.764       5.645    
        5.533       5.428       5.330       5.241       5.160       5.088       5.030       4.986       4.952       4.926    
        4.907       4.891       4.879       4.870       4.862       4.856       4.851       4.847       4.843       4.841    
        4.838       4.835       4.833       4.830       4.827       4.824       4.821       4.817       4.811       4.804    
        4.793       4.778       4.759       4.732       4.689       4.627       4.555       4.475       4.387       4.292    
        4.190       4.082       3.968       3.849       3.725       3.595       3.462       3.325       3.184       3.041    
        2.895       2.747       2.601       2.463       2.330       2.194       2.055       1.914       1.771       1.620    
        1.461       1.300       1.138      0.9756      0.8129      0.6504      0.4879      0.3254      0.1627       0.000    
   2    10.00       9.838       9.675       9.513       9.351       9.190       9.030       8.871       8.714       8.558    
        8.405       8.254       8.104       7.954       7.804       7.651       7.498       7.344       7.189       7.035    
        6.882       6.731       6.581       6.434       6.290       6.150       6.014       5.883       5.757       5.638    
        5.525       5.420       5.322       5.232       5.151       5.081       5.026       4.983       4.950       4.925    
        4.906       4.891       4.879       4.870       4.862       4.856       4.851       4.847       4.844       4.841    
        4.838       4.835       4.833       4.830       4.827       4.824       4.821       4.816       4.811       4.803    
        4.793       4.778       4.760       4.732       4.690       4.634       4.563       4.482       4.394       4.298    
        4.196       4.088       3.973       3.854       3.729       3.599       3.466       3.328       3.187       3.043    
        2.896       2.748       2.603       2.464       2.330       2.194       2.055       1.915       1.772       1.622    
        1.463       1.301       1.138      0.9755      0.8126      0.6499      0.4874      0.3251      0.1626       0.000    
   3    10.00       9.837       9.674       9.512       9.349       9.187       9.026       8.867       8.709       8.554    
        8.401       8.252       8.104       7.955       7.805       7.653       7.498       7.343       7.188       7.033    
        6.879       6.726       6.575       6.427       6.282       6.140       6.003       5.871       5.744       5.624    
        5.510       5.404       5.306       5.215       5.136       5.071       5.019       4.979       4.947       4.923    
        4.905       4.890       4.879       4.869       4.862       4.856       4.851       4.847       4.844       4.841    
        4.838       4.836       4.833       4.830       4.827       4.824       4.821       4.816       4.810       4.803    
        4.792       4.778       4.759       4.732       4.694       4.643       4.576       4.496       4.407       4.311    
        4.208       4.099       3.984       3.863       3.737       3.607       3.473       3.334       3.192       3.047    
        2.899       2.751       2.606       2.468       2.331       2.193       2.056       1.917       1.774       1.624    
        1.465       1.301       1.138      0.9750      0.8120      0.6492      0.4867      0.3245      0.1623       0.000    
   4    10.00       9.837       9.673       9.509       9.346       9.183       9.021       8.861       8.702       8.547    
        8.397       8.249       8.103       7.955       7.806       7.654       7.499       7.343       7.186       7.029    
        6.874       6.719       6.567       6.417       6.270       6.127       5.988       5.853       5.725       5.603    
        5.488       5.380       5.281       5.193       5.120       5.060       5.012       4.974       4.944       4.921    
        4.903       4.889       4.878       4.869       4.862       4.856       4.852       4.848       4.844       4.841    
        4.839       4.836       4.833       4.830       4.827       4.824       4.820       4.816       4.810       4.802    
        4.792       4.778       4.759       4.733       4.697       4.651       4.591       4.516       4.427       4.330    
        4.226       4.115       3.999       3.877       3.750       3.619       3.483       3.343       3.200       3.054    
        2.905       2.756       2.611       2.472       2.334       2.195       2.058       1.918       1.775       1.625    
        1.466       1.302       1.138      0.9738      0.8106      0.6479      0.4855      0.3235      0.1618       0.000    
   5    10.00       9.836       9.671       9.507       9.342       9.178       9.015       8.853       8.694       8.541    
        8.392       8.246       8.101       7.955       7.806       7.655       7.500       7.342       7.183       7.025    
        6.867       6.710       6.556       6.403       6.254       6.108       5.966       5.830       5.699       5.575    
        5.457       5.350       5.254       5.172       5.104       5.048       5.003       4.968       4.940       4.918    
        4.901       4.888       4.877       4.869       4.862       4.857       4.852       4.848       4.845       4.842    
        4.839       4.836       4.833       4.831       4.828       4.824       4.820       4.815       4.809       4.801    
        4.791       4.777       4.759       4.734       4.701       4.658       4.603       4.534       4.452       4.355    
        4.250       4.138       4.020       3.896       3.768       3.634       3.497       3.356       3.211       3.063    
        2.912       2.763       2.618       2.477       2.338       2.199       2.060       1.920       1.776       1.626    
        1.466       1.301       1.136      0.9720      0.8085      0.6457      0.4836      0.3221      0.1610       0.000    
   6    10.00       9.835       9.669       9.504       9.338       9.172       9.007       8.844       8.687       8.536    
        8.388       8.243       8.098       7.953       7.805       7.654       7.499       7.341       7.180       7.019    
        6.858       6.699       6.542       6.386       6.234       6.085       5.940       5.800       5.666       5.539    
        5.423       5.319       5.229       5.152       5.089       5.037       4.995       4.962       4.936       4.915    
        4.899       4.886       4.876       4.868       4.862       4.857       4.852       4.849       4.845       4.842    
        4.839       4.837       4.834       4.831       4.828       4.824       4.820       4.815       4.809       4.801    
        4.790       4.777       4.759       4.735       4.704       4.664       4.613       4.550       4.473       4.383    
        4.279       4.166       4.045       3.920       3.789       3.654       3.514       3.371       3.225       3.074    
        2.923       2.774       2.628       2.485       2.344       2.203       2.063       1.921       1.776       1.625    
        1.466       1.300       1.134      0.9693      0.8053      0.6424      0.4807      0.3199      0.1598       0.000    
   7    10.00       9.834       9.667       9.500       9.333       9.165       8.998       8.836       8.680       8.531    
        8.384       8.240       8.096       7.950       7.803       7.652       7.497       7.338       7.176       7.012    
        6.848       6.686       6.525       6.366       6.210       6.057       5.908       5.765       5.628       5.503    
        5.391       5.291       5.206       5.134       5.074       5.025       4.986       4.955       4.931       4.912    
        4.897       4.885       4.875       4.868       4.862       4.857       4.853       4.849       4.846       4.843    
        4.840       4.837       4.834       4.831       4.828       4.824       4.820       4.815       4.808       4.800    
        4.790       4.776       4.759       4.736       4.707       4.669       4.622       4.563       4.491       4.406    
        4.307       4.197       4.076       3.948       3.815       3.677       3.535       3.390       3.241       3.090    
        2.938       2.787       2.639       2.494       2.350       2.208       2.065       1.921       1.775       1.623    
        1.464       1.298       1.131      0.9651      0.8007      0.6379      0.4766      0.3167      0.1580       0.000    
   8    10.00       9.833       9.665       9.496       9.328       9.158       8.990       8.829       8.675       8.526    
        8.381       8.237       8.092       7.947       7.799       7.648       7.493       7.333       7.170       7.004    
        6.837       6.671       6.506       6.343       6.183       6.025       5.872       5.728       5.593       5.470    
        5.361       5.266       5.184       5.116       5.060       5.015       4.978       4.949       4.926       4.908    
        4.894       4.883       4.875       4.867       4.862       4.857       4.853       4.849       4.846       4.843    
        4.840       4.837       4.834       4.831       4.828       4.824       4.820       4.815       4.808       4.800    
        4.789       4.776       4.759       4.738       4.710       4.674       4.629       4.574       4.506       4.426    
        4.331       4.225       4.107       3.979       3.844       3.704       3.559       3.412       3.261       3.109    
        2.955       2.803       2.653       2.504       2.358       2.213       2.067       1.921       1.772       1.620    
        1.460       1.294       1.126      0.9592      0.7943      0.6315      0.4707      0.3120      0.1553       0.000    
   9    10.00       9.832       9.663       9.493       9.323       9.152       8.984       8.824       8.671       8.523    
        8.377       8.233       8.089       7.943       7.795       7.643       7.487       7.326       7.162       6.994    
        6.825       6.655       6.485       6.317       6.152       5.992       5.838       5.694       5.560       5.440    
        5.334       5.242       5.164       5.099       5.047       5.004       4.970       4.943       4.922       4.905    
        4.892       4.882       4.874       4.867       4.862       4.857       4.853       4.850       4.847       4.844    
        4.841       4.838       4.835       4.832       4.828       4.824       4.820       4.814       4.808       4.799    
        4.789       4.776       4.760       4.739       4.712       4.679       4.636       4.583       4.519       4.442    
        4.352       4.249       4.133       4.007       3.873       3.732       3.587       3.438       3.285       3.130    
        2.975       2.820       2.667       2.516       2.366       2.218       2.069       1.920       1.769       1.615    
        1.455       1.288       1.119      0.9511      0.7857      0.6226      0.4623      0.3050      0.1510       0.000    
  10    10.00       9.831       9.661       9.490       9.319       9.146       8.978       8.819       8.667       8.519    
        8.374       8.230       8.086       7.940       7.790       7.637       7.480       7.318       7.152       6.982    
        6.810       6.637       6.463       6.291       6.123       5.961       5.806       5.662       5.530       5.412    
        5.308       5.220       5.145       5.084       5.034       4.994       4.963       4.937       4.917       4.902    
        4.890       4.880       4.873       4.867       4.861       4.857       4.853       4.850       4.847       4.844    
        4.841       4.838       4.835       4.832       4.828       4.825       4.820       4.814       4.808       4.799    
        4.789       4.776       4.761       4.741       4.715       4.683       4.642       4.592       4.531       4.457    
        4.370       4.270       4.157       4.033       3.900       3.760       3.615       3.464       3.310       3.153    
        2.995       2.838       2.682       2.527       2.374       2.222       2.071       1.919       1.766       1.609    
        1.448       1.280       1.110      0.9408      0.7743      0.6107      0.4506      0.2945      0.1433       0.000    
  11    10.00       9.830       9.659       9.488       9.315       9.142       8.975       8.816       8.664       8.517    
        8.372       8.228       8.083       7.936       7.786       7.632       7.473       7.309       7.141       6.969    
        6.794       6.618       6.441       6.267       6.096       5.932       5.777       5.633       5.502       5.386    
        5.285       5.199       5.128       5.069       5.022       4.985       4.955       4.932       4.913       4.899    
        4.888       4.879       4.872       4.866       4.861       4.857       4.854       4.850       4.847       4.844    
        4.841       4.838       4.835       4.832       4.829       4.825       4.820       4.815       4.808       4.799    
        4.789       4.777       4.761       4.742       4.717       4.686       4.647       4.600       4.541       4.470    
        4.385       4.288       4.178       4.056       3.926       3.787       3.642       3.490       3.334       3.176    
        3.016       2.855       2.696       2.538       2.382       2.227       2.072       1.917       1.761       1.601    
        1.438       1.270       1.098      0.9277      0.7597      0.5949      0.4347      0.2788      0.1276       0.000    
  12    10.00       9.829       9.658       9.486       9.313       9.140       8.972       8.814       8.662       8.515    
        8.370       8.225       8.080       7.933       7.781       7.626       7.466       7.301       7.130       6.956    
        6.778       6.599       6.420       6.244       6.072       5.907       5.750       5.606       5.476       5.361    
        5.263       5.180       5.111       5.056       5.011       4.976       4.948       4.926       4.909       4.896    
        4.886       4.878       4.871       4.866       4.861       4.857       4.854       4.851       4.848       4.845    
        4.842       4.839       4.836       4.832       4.829       4.825       4.820       4.815       4.808       4.800    
        4.789       4.777       4.763       4.744       4.720       4.690       4.652       4.606       4.549       4.481    
        4.399       4.304       4.196       4.078       3.950       3.812       3.667       3.515       3.358       3.197    
        3.035       2.872       2.710       2.549       2.390       2.231       2.073       1.914       1.755       1.593    
        1.427       1.258       1.084      0.9119      0.7415      0.5744      0.4139      0.2583      0.1180       0.000    
  13    10.00       9.829       9.658       9.485       9.312       9.138       8.971       8.812       8.661       8.513    
        8.368       8.224       8.078       7.930       7.778       7.621       7.459       7.292       7.120       6.943    
        6.763       6.582       6.400       6.222       6.051       5.884       5.725       5.580       5.451       5.338    
        5.242       5.162       5.096       5.043       5.001       4.968       4.942       4.921       4.906       4.893    
        4.884       4.876       4.870       4.865       4.861       4.857       4.854       4.851       4.848       4.845    
        4.842       4.839       4.836       4.833       4.829       4.825       4.821       4.815       4.808       4.800    
        4.790       4.778       4.764       4.745       4.722       4.693       4.656       4.611       4.557       4.490    
        4.411       4.319       4.214       4.097       3.971       3.835       3.689       3.537       3.379       3.217    
        3.053       2.888       2.723       2.559       2.396       2.234       2.072       1.911       1.748       1.583    
        1.415       1.243       1.068      0.8935      0.7196      0.5470      0.3921      0.2544      0.1221       0.000    
  14    10.00       9.829       9.658       9.486       9.313       9.139       8.970       8.811       8.660       8.513    
        8.367       8.222       8.076       7.927       7.774       7.617       7.454       7.285       7.111       6.932    
        6.750       6.566       6.382       6.202       6.028       5.862       5.703       5.558       5.429       5.318    
        5.223       5.146       5.082       5.031       4.991       4.960       4.936       4.917       4.902       4.891    
        4.882       4.875       4.870       4.865       4.861       4.857       4.854       4.851       4.848       4.845    
        4.842       4.839       4.836       4.833       4.829       4.825       4.821       4.815       4.809       4.801    
        4.791       4.779       4.765       4.747       4.724       4.695       4.660       4.616       4.562       4.498    
        4.422       4.332       4.230       4.115       3.990       3.854       3.709       3.557       3.398       3.235    
        3.069       2.902       2.734       2.568       2.402       2.236       2.072       1.906       1.740       1.572    
        1.400       1.227       1.051      0.8743      0.6963      0.5332      0.3898      0.2527      0.1224       0.000    
  15    10.00       9.830       9.659       9.487       9.315       9.141       8.971       8.812       8.659       8.512    
        8.367       8.222       8.075       7.926       7.772       7.613       7.449       7.279       7.103       6.922    
        6.738       6.552       6.366       6.184       6.007       5.840       5.682       5.538       5.410       5.300    
        5.207       5.131       5.070       5.021       4.983       4.953       4.930       4.913       4.899       4.889    
        4.881       4.874       4.869       4.865       4.861       4.858       4.854       4.851       4.848       4.845    
        4.842       4.839       4.836       4.833       4.829       4.825       4.821       4.816       4.809       4.801    
        4.792       4.780       4.766       4.748       4.726       4.698       4.663       4.620       4.568       4.505    
        4.430       4.342       4.241       4.129       4.005       3.870       3.726       3.573       3.414       3.250    
        3.082       2.913       2.744       2.575       2.406       2.237       2.070       1.902       1.731       1.560    
        1.387       1.212       1.034      0.8539      0.6849      0.5326      0.3884      0.2515      0.1220       0.000    
  16    10.00       9.830       9.660       9.489       9.317       9.144       8.974       8.813       8.660       8.512    
        8.367       8.221       8.075       7.925       7.770       7.611       7.446       7.274       7.097       6.915    
        6.729       6.541       6.353       6.168       5.990       5.821       5.664       5.520       5.394       5.284    
        5.193       5.118       5.058       5.011       4.975       4.947       4.926       4.909       4.897       4.887    
        4.880       4.874       4.869       4.865       4.861       4.858       4.855       4.851       4.848       4.845    
        4.842       4.839       4.836       4.833       4.829       4.826       4.821       4.816       4.810       4.802    
        4.792       4.781       4.767       4.750       4.728       4.700       4.666       4.623       4.572       4.510    
        4.437       4.351       4.251       4.140       4.017       3.883       3.739       3.586       3.426       3.261    
        3.093       2.922       2.751       2.580       2.409       2.237       2.066       1.895       1.723       1.550    
        1.375       1.197       1.017      0.8441      0.6839      0.5317      0.3873      0.2505      0.1214       0.000    
  17    10.00       9.831       9.662       9.492       9.321       9.149       8.979       8.816       8.662       8.513    
        8.367       8.221       8.074       7.924       7.769       7.609       7.443       7.271       7.092       6.909    
        6.722       6.532       6.343       6.156       5.976       5.806       5.648       5.505       5.379       5.271    
        5.180       5.107       5.048       5.003       4.968       4.942       4.921       4.906       4.894       4.885    
        4.879       4.873       4.869       4.865       4.861       4.858       4.855       4.852       4.848       4.845    
        4.842       4.839       4.836       4.833       4.829       4.826       4.821       4.816       4.810       4.803    
        4.793       4.782       4.768       4.751       4.729       4.702       4.668       4.626       4.575       4.514    
        4.442       4.357       4.259       4.148       4.026       3.892       3.748       3.595       3.435       3.269    
        3.100       2.928       2.755       2.582       2.408       2.234       2.062       1.889       1.715       1.541    
        1.364       1.185       1.009      0.8425      0.6829      0.5309      0.3865      0.2499      0.1211       0.000    
  18    10.00       9.832       9.664       9.495       9.325       9.154       8.984       8.820       8.665       8.515    
        8.368       8.222       8.074       7.924       7.769       7.608       7.441       7.268       7.089       6.905    
        6.717       6.527       6.336       6.148       5.966       5.794       5.635       5.492       5.366       5.259    
        5.170       5.097       5.040       4.996       4.962       4.937       4.918       4.903       4.892       4.884    
        4.878       4.873       4.869       4.865       4.862       4.858       4.855       4.852       4.848       4.845    
        4.842       4.839       4.835       4.832       4.829       4.825       4.821       4.816       4.810       4.803    
        4.794       4.783       4.769       4.752       4.731       4.704       4.670       4.629       4.578       4.518    
        4.446       4.361       4.264       4.154       4.032       3.898       3.754       3.600       3.440       3.273    
        3.103       2.930       2.755       2.580       2.405       2.231       2.056       1.883       1.709       1.534    
        1.356       1.179       1.007      0.8414      0.6823      0.5306      0.3863      0.2498      0.1210       0.000    
  19    10.00       9.833       9.666       9.498       9.330       9.161       8.991       8.826       8.669       8.517    
        8.370       8.223       8.075       7.924       7.769       7.608       7.441       7.267       7.087       6.903    
        6.716       6.526       6.335       6.144       5.960       5.786       5.626       5.482       5.356       5.249    
        5.161       5.089       5.033       4.990       4.957       4.933       4.915       4.901       4.891       4.883    
        4.878       4.873       4.869       4.866       4.862       4.859       4.855       4.852       4.849       4.845    
        4.842       4.839       4.835       4.832       4.829       4.825       4.821       4.816       4.811       4.804    
        4.795       4.784       4.770       4.753       4.732       4.705       4.671       4.630       4.580       4.519    
        4.447       4.363       4.266       4.156       4.034       3.900       3.755       3.601       3.440       3.273    
        3.102       2.928       2.752       2.576       2.400       2.225       2.050       1.876       1.703       1.528    
        1.352       1.177       1.006      0.8412      0.6825      0.5309      0.3867      0.2500      0.1211       0.000    
  20    10.00       9.834       9.668       9.501       9.335       9.167       9.000       8.833       8.673       8.520    
        8.371       8.224       8.076       7.925       7.770       7.608       7.440       7.266       7.086       6.903    
        6.717       6.529       6.337       6.146       5.959       5.783       5.621       5.475       5.349       5.242    
        5.154       5.083       5.027       4.985       4.953       4.929       4.912       4.899       4.890       4.883    
        4.877       4.873       4.870       4.866       4.863       4.859       4.855       4.852       4.849       4.845    
        4.842       4.838       4.835       4.832       4.828       4.825       4.821       4.816       4.811       4.804    
        4.795       4.784       4.771       4.754       4.733       4.706       4.672       4.631       4.580       4.520    
        4.448       4.363       4.266       4.156       4.033       3.898       3.753       3.598       3.436       3.269    
        3.097       2.922       2.746       2.569       2.393       2.217       2.043       1.870       1.697       1.524    
        1.351       1.177       1.007      0.8422      0.6837      0.5321      0.3876      0.2507      0.1215       0.000    
  21    10.00       9.835       9.670       9.505       9.339       9.174       9.009       8.844       8.680       8.523    
        8.373       8.226       8.077       7.927       7.771       7.609       7.441       7.266       7.087       6.905    
        6.721       6.534       6.344       6.152       5.963       5.784       5.619       5.472       5.344       5.237    
        5.149       5.079       5.023       4.981       4.950       4.927       4.910       4.898       4.889       4.882    
        4.877       4.874       4.870       4.866       4.863       4.859       4.856       4.852       4.849       4.845    
        4.842       4.838       4.835       4.831       4.828       4.824       4.821       4.816       4.811       4.804    
        4.796       4.785       4.771       4.754       4.733       4.706       4.672       4.630       4.579       4.518    
        4.446       4.361       4.263       4.152       4.028       3.892       3.746       3.591       3.428       3.260    
        3.088       2.913       2.736       2.559       2.383       2.208       2.035       1.863       1.691       1.520    
        1.349       1.178       1.009      0.8443      0.6858      0.5340      0.3892      0.2517      0.1219       0.000    
  22    10.00       9.836       9.672       9.508       9.344       9.180       9.016       8.853       8.691       8.529    
        8.375       8.227       8.079       7.928       7.773       7.611       7.443       7.268       7.090       6.910    
        6.727       6.542       6.353       6.162       5.971       5.789       5.622       5.473       5.343       5.235    
        5.147       5.076       5.021       4.978       4.947       4.925       4.909       4.897       4.888       4.882    
        4.878       4.874       4.870       4.867       4.863       4.859       4.856       4.852       4.849       4.845    
        4.841       4.838       4.834       4.831       4.827       4.824       4.820       4.816       4.811       4.804    
        4.796       4.785       4.771       4.754       4.733       4.706       4.672       4.629       4.577       4.516    
        4.443       4.357       4.258       4.145       4.019       3.882       3.734       3.579       3.416       3.247    
        3.074       2.899       2.722       2.546       2.370       2.197       2.025       1.854       1.684       1.515    
        1.347       1.179       1.012      0.8474      0.6888      0.5367      0.3912      0.2527      0.1220       0.000    
  23    10.00       9.837       9.674       9.511       9.348       9.185       9.023       8.861       8.700       8.540    
        8.381       8.228       8.081       7.931       7.776       7.614       7.446       7.272       7.096       6.917    
        6.736       6.552       6.365       6.175       5.984       5.799       5.629       5.478       5.346       5.236    
        5.147       5.076       5.019       4.977       4.946       4.924       4.908       4.896       4.888       4.882    
        4.878       4.875       4.871       4.867       4.863       4.860       4.856       4.852       4.848       4.845    
        4.841       4.837       4.834       4.830       4.827       4.823       4.819       4.815       4.810       4.804    
        4.795       4.785       4.771       4.754       4.732       4.705       4.670       4.627       4.574       4.512    
        4.437       4.350       4.248       4.134       4.007       3.868       3.719       3.562       3.399       3.230    
        3.057       2.882       2.706       2.530       2.356       2.184       2.014       1.845       1.677       1.510    
        1.344       1.178       1.014      0.8511      0.6926      0.5400      0.3935      0.2533      0.1204       0.000    
  24    10.00       9.838       9.676       9.514       9.352       9.190       9.029       8.868       8.708       8.549    
        8.391       8.234       8.082       7.933       7.779       7.618       7.451       7.279       7.104       6.926    
        6.746       6.564       6.379       6.191       6.001       5.814       5.641       5.486       5.353       5.240    
        5.149       5.077       5.020       4.977       4.946       4.923       4.907       4.896       4.888       4.883    
        4.879       4.875       4.871       4.867       4.864       4.860       4.856       4.852       4.848       4.845    
        4.841       4.837       4.833       4.830       4.826       4.822       4.819       4.815       4.810       4.803    
        4.795       4.784       4.771       4.753       4.731       4.703       4.667       4.623       4.570       4.505    
        4.429       4.339       4.236       4.119       3.990       3.849       3.699       3.541       3.377       3.208    
        3.035       2.861       2.686       2.512       2.339       2.169       2.001       1.833       1.668       1.503    
        1.339       1.177       1.015      0.8547      0.6969      0.5441      0.3963      0.2537      0.1210       0.000    
  25    10.00       9.839       9.677       9.516       9.355       9.194       9.034       8.874       8.715       8.557    
        8.401       8.245       8.089       7.936       7.783       7.624       7.458       7.287       7.114       6.938    
        6.760       6.579       6.395       6.209       6.020       5.832       5.656       5.499       5.363       5.248    
        5.155       5.080       5.022       4.979       4.947       4.924       4.908       4.897       4.889       4.884    
        4.879       4.876       4.872       4.868       4.864       4.860       4.856       4.852       4.848       4.844    
        4.841       4.837       4.833       4.829       4.825       4.822       4.818       4.814       4.809       4.803    
        4.794       4.783       4.769       4.752       4.729       4.700       4.663       4.618       4.563       4.497    
        4.418       4.325       4.220       4.101       3.970       3.827       3.674       3.515       3.351       3.181    
        3.010       2.836       2.663       2.491       2.321       2.152       1.986       1.821       1.657       1.495    
        1.334       1.174       1.015      0.8577      0.7019      0.5496      0.4004      0.2583      0.1256       0.000    
  26    10.00       9.839       9.679       9.518       9.357       9.197       9.038       8.879       8.721       8.564    
        8.409       8.255       8.100       7.945       7.788       7.629       7.466       7.298       7.126       6.952    
        6.775       6.596       6.414       6.230       6.042       5.854       5.675       5.516       5.377       5.259    
        5.163       5.086       5.027       4.983       4.950       4.926       4.909       4.898       4.890       4.884    
        4.880       4.876       4.872       4.868       4.864       4.860       4.856       4.852       4.848       4.844    
        4.840       4.836       4.833       4.829       4.825       4.821       4.817       4.813       4.808       4.802    
        4.793       4.782       4.768       4.749       4.726       4.696       4.658       4.611       4.554       4.485    
        4.403       4.308       4.200       4.078       3.944       3.799       3.645       3.485       3.320       3.151    
        2.981       2.810       2.639       2.468       2.300       2.134       1.969       1.806       1.645       1.485    
        1.327       1.170       1.014      0.8597      0.7073      0.5577      0.4112      0.2693      0.1327       0.000    
  27    10.00       9.840       9.680       9.519       9.359       9.200       9.040       8.882       8.725       8.569    
        8.416       8.264       8.111       7.956       7.799       7.639       7.476       7.310       7.140       6.968    
        6.793       6.615       6.435       6.252       6.067       5.879       5.699       5.536       5.395       5.274    
        5.175       5.096       5.035       4.989       4.954       4.929       4.912       4.900       4.891       4.885    
        4.881       4.877       4.873       4.869       4.865       4.860       4.856       4.852       4.848       4.844    
        4.840       4.836       4.832       4.828       4.824       4.820       4.817       4.812       4.807       4.800    
        4.791       4.780       4.765       4.746       4.721       4.690       4.650       4.601       4.542       4.470    
        4.385       4.287       4.175       4.051       3.914       3.767       3.612       3.451       3.286       3.118    
        2.949       2.780       2.610       2.442       2.277       2.113       1.951       1.790       1.631       1.474    
        1.318       1.164       1.011      0.8594      0.7099      0.5625      0.4177      0.2759      0.1370       0.000    
  28    10.00       9.840       9.680       9.520       9.360       9.201       9.042       8.884       8.728       8.574    
        8.423       8.273       8.122       7.969       7.811       7.652       7.490       7.325       7.156       6.986    
        6.812       6.637       6.458       6.277       6.093       5.907       5.726       5.561       5.417       5.294    
        5.192       5.110       5.046       4.997       4.961       4.934       4.915       4.902       4.893       4.887    
        4.882       4.878       4.873       4.869       4.865       4.861       4.856       4.852       4.848       4.844    
        4.840       4.836       4.831       4.827       4.824       4.820       4.816       4.811       4.806       4.798    
        4.789       4.777       4.761       4.741       4.715       4.682       4.640       4.589       4.527       4.452    
        4.364       4.262       4.147       4.018       3.879       3.730       3.575       3.414       3.250       3.083    
        2.914       2.746       2.579       2.414       2.251       2.090       1.930       1.772       1.616       1.461    
        1.308       1.156       1.006      0.8569      0.7099      0.5645      0.4210      0.2793      0.1392       0.000    
  29    10.00       9.840       9.680       9.521       9.361       9.201       9.043       8.885       8.730       8.578    
        8.429       8.281       8.133       7.982       7.826       7.667       7.506       7.342       7.175       7.006    
        6.835       6.660       6.484       6.304       6.122       5.938       5.757       5.590       5.444       5.318    
        5.213       5.128       5.061       5.009       4.970       4.941       4.920       4.906       4.896       4.889    
        4.883       4.878       4.874       4.870       4.865       4.861       4.857       4.852       4.848       4.843    
        4.839       4.835       4.831       4.827       4.823       4.819       4.815       4.810       4.804       4.796    
        4.786       4.773       4.756       4.734       4.707       4.672       4.628       4.574       4.508       4.429    
        4.338       4.232       4.113       3.981       3.839       3.688       3.533       3.375       3.211       3.044    
        2.876       2.711       2.547       2.384       2.224       2.065       1.907       1.752       1.598       1.446    
        1.295       1.146      0.9988      0.8526      0.7078      0.5643      0.4220      0.2808      0.1403       0.000    
  30    10.00       9.840       9.680       9.520       9.361       9.201       9.042       8.885       8.732       8.582    
        8.435       8.289       8.143       7.994       7.841       7.685       7.524       7.362       7.196       7.029    
        6.859       6.686       6.511       6.334       6.154       5.970       5.790       5.624       5.475       5.347    
        5.239       5.150       5.080       5.024       4.982       4.950       4.927       4.911       4.900       4.891    
        4.884       4.879       4.875       4.870       4.866       4.861       4.857       4.852       4.848       4.843    
        4.839       4.834       4.830       4.826       4.822       4.818       4.813       4.808       4.801       4.793    
        4.782       4.767       4.749       4.726       4.696       4.659       4.612       4.555       4.485       4.403    
        4.307       4.197       4.073       3.938       3.793       3.643       3.491       3.332       3.168       3.002    
        2.837       2.674       2.512       2.352       2.194       2.038       1.883       1.730       1.579       1.429    
        1.281       1.135      0.9902      0.8466      0.7042      0.5626      0.4217      0.2812      0.1407       0.000    
  31    10.00       9.840       9.680       9.520       9.360       9.200       9.041       8.885       8.734       8.587    
        8.442       8.297       8.152       8.005       7.855       7.701       7.544       7.383       7.219       7.054    
        6.885       6.714       6.541       6.366       6.188       6.006       5.827       5.662       5.513       5.382    
        5.271       5.178       5.103       5.044       4.998       4.962       4.936       4.918       4.905       4.895    
        4.887       4.881       4.875       4.871       4.866       4.861       4.857       4.852       4.847       4.843    
        4.838       4.834       4.829       4.825       4.821       4.816       4.811       4.805       4.798       4.788    
        4.776       4.761       4.741       4.715       4.683       4.643       4.592       4.531       4.458       4.371    
        4.271       4.157       4.028       3.892       3.748       3.598       3.443       3.284       3.121       2.958    
        2.795       2.635       2.476       2.318       2.162       2.008       1.856       1.706       1.557       1.411    
        1.266       1.122      0.9801      0.8393      0.6994      0.5601      0.4208      0.2813      0.1411       0.000    
  32    10.00       9.840       9.679       9.519       9.358       9.198       9.039       8.886       8.737       8.592    
        8.448       8.305       8.161       8.016       7.868       7.717       7.561       7.404       7.243       7.080    
        6.914       6.745       6.574       6.400       6.222       6.043       5.868       5.705       5.556       5.423    
        5.309       5.212       5.132       5.068       5.017       4.978       4.948       4.926       4.911       4.899    
        4.890       4.883       4.877       4.871       4.866       4.861       4.857       4.852       4.847       4.842    
        4.838       4.833       4.828       4.824       4.819       4.814       4.809       4.802       4.793       4.783    
        4.769       4.752       4.730       4.702       4.667       4.623       4.569       4.504       4.426       4.335    
        4.230       4.113       3.983       3.844       3.696       3.545       3.391       3.233       3.072       2.911    
        2.752       2.594       2.437       2.282       2.129       1.977       1.827       1.680       1.534       1.390    
        1.249       1.108      0.9695      0.8317      0.6944      0.5573      0.4199      0.2816      0.1419       0.000    
  33    10.00       9.839       9.678       9.518       9.356       9.196       9.040       8.889       8.742       8.597    
        8.455       8.312       8.170       8.026       7.880       7.730       7.577       7.422       7.265       7.106    
        6.945       6.779       6.607       6.434       6.258       6.083       5.913       5.752       5.604       5.470    
        5.352       5.251       5.167       5.097       5.042       4.997       4.963       4.938       4.920       4.906    
        4.895       4.886       4.878       4.872       4.867       4.862       4.857       4.852       4.847       4.842    
        4.837       4.832       4.827       4.823       4.817       4.812       4.805       4.797       4.787       4.775    
        4.760       4.741       4.716       4.685       4.646       4.599       4.541       4.471       4.388       4.293    
        4.184       4.063       3.931       3.789       3.640       3.488       3.332       3.177       3.021       2.863    
        2.706       2.551       2.397       2.244       2.093       1.944       1.797       1.653       1.510       1.370    
        1.232       1.095      0.9589      0.8239      0.6893      0.5546      0.4194      0.2828      0.1442       0.000    
  34    10.00       9.839       9.677       9.516       9.355       9.197       9.043       8.894       8.748       8.604    
        8.462       8.320       8.178       8.035       7.890       7.742       7.592       7.439       7.284       7.128    
        6.973       6.812       6.643       6.470       6.297       6.127       5.962       5.804       5.657       5.522    
        5.402       5.297       5.207       5.133       5.071       5.021       4.982       4.953       4.931       4.914    
        4.901       4.890       4.881       4.874       4.868       4.862       4.857       4.851       4.846       4.841    
        4.836       4.831       4.826       4.820       4.814       4.808       4.800       4.791       4.780       4.766    
        4.749       4.727       4.699       4.664       4.622       4.570       4.507       4.432       4.345       4.245    
        4.132       4.008       3.873       3.729       3.579       3.425       3.273       3.123       2.969       2.814    
        2.660       2.506       2.354       2.204       2.056       1.910       1.767       1.626       1.487       1.350    
        1.215       1.081      0.9483      0.8162      0.6844      0.5523      0.4199      0.2852      0.1453       0.000    
  35    10.00       9.838       9.675       9.515       9.358       9.202       9.050       8.901       8.756       8.612    
        8.470       8.328       8.186       8.043       7.899       7.753       7.604       7.453       7.301       7.148    
        6.994       6.840       6.678       6.509       6.340       6.174       6.013       5.859       5.714       5.579    
        5.457       5.348       5.254       5.174       5.107       5.051       5.006       4.972       4.946       4.925    
        4.909       4.896       4.886       4.877       4.870       4.863       4.857       4.851       4.846       4.840    
        4.835       4.829       4.823       4.817       4.810       4.802       4.793       4.782       4.770       4.754    
        4.734       4.709       4.678       4.639       4.592       4.535       4.467       4.387       4.295       4.191    
        4.075       3.947       3.809       3.663       3.513       3.365       3.217       3.067       2.916       2.764    
        2.611       2.461       2.312       2.165       2.020       1.877       1.737       1.599       1.464       1.330    
        1.198       1.067      0.9380      0.8089      0.6799      0.5503      0.4192      0.2851      0.1454       0.000    
  36    10.00       9.837       9.676       9.518       9.363       9.210       9.060       8.911       8.765       8.622    
        8.479       8.337       8.194       8.051       7.907       7.762       7.615       7.466       7.316       7.165    
        7.013       6.861       6.709       6.549       6.383       6.222       6.066       5.916       5.774       5.641    
        5.518       5.406       5.308       5.222       5.149       5.087       5.036       4.996       4.964       4.939    
        4.920       4.904       4.891       4.881       4.872       4.864       4.857       4.851       4.845       4.839    
        4.833       4.826       4.820       4.812       4.804       4.795       4.784       4.772       4.757       4.739    
        4.716       4.687       4.652       4.609       4.557       4.494       4.421       4.336       4.240       4.131    
        4.011       3.880       3.740       3.595       3.450       3.305       3.158       3.011       2.861       2.712    
        2.563       2.415       2.269       2.126       1.984       1.845       1.708       1.573       1.441       1.310    
        1.182       1.054      0.9275      0.8015      0.6755      0.5487      0.4188      0.2860      0.1459       0.000    
  37    10.00       9.841       9.682       9.525       9.372       9.220       9.071       8.923       8.777       8.633    
        8.489       8.346       8.202       8.057       7.913       7.768       7.623       7.476       7.329       7.180    
        7.031       6.882       6.732       6.583       6.425       6.267       6.118       5.973       5.834       5.703    
        5.581       5.468       5.366       5.276       5.197       5.129       5.073       5.026       4.989       4.959    
        4.934       4.915       4.899       4.887       4.876       4.867       4.858       4.851       4.844       4.837    
        4.829       4.822       4.814       4.806       4.796       4.785       4.772       4.757       4.740       4.718    
        4.692       4.659       4.619       4.570       4.513       4.445       4.367       4.278       4.177       4.065    
        3.942       3.808       3.670       3.530       3.387       3.243       3.098       2.952       2.806       2.659    
        2.514       2.370       2.228       2.087       1.949       1.813       1.680       1.548       1.419       1.291    
        1.165       1.041      0.9172      0.7943      0.6715      0.5492      0.4192      0.2811      0.1407       0.000    
  38    10.00       9.844       9.689       9.535       9.382       9.231       9.082       8.936       8.790       8.644    
        8.499       8.354       8.209       8.065       7.920       7.775       7.631       7.487       7.341       7.196    
        7.049       6.903       6.756       6.610       6.462       6.312       6.167       6.026       5.890       5.762    
        5.642       5.530       5.427       5.334       5.250       5.178       5.115       5.063       5.020       4.984    
        4.955       4.931       4.912       4.895       4.882       4.870       4.860       4.851       4.842       4.833    
        4.825       4.816       4.806       4.796       4.784       4.771       4.755       4.737       4.716       4.691    
        4.660       4.623       4.577       4.524       4.461       4.388       4.306       4.211       4.106       3.992    
        3.868       3.737       3.601       3.460       3.319       3.178       3.036       2.892       2.749       2.607    
        2.466       2.325       2.186       2.049       1.915       1.782       1.652       1.524       1.397       1.272    
        1.149       1.027      0.9069      0.7873      0.6664      0.5426      0.4134      0.2776      0.1356       0.000    
  39    10.00       9.848       9.696       9.544       9.392       9.242       9.094       8.947       8.801       8.654    
        8.508       8.362       8.217       8.072       7.927       7.783       7.640       7.497       7.354       7.211    
        7.067       6.923       6.781       6.639       6.496       6.354       6.214       6.077       5.946       5.821    
        5.703       5.592       5.489       5.394       5.308       5.231       5.164       5.106       5.056       5.015    
        4.980       4.952       4.927       4.907       4.890       4.876       4.863       4.851       4.839       4.829    
        4.818       4.807       4.795       4.782       4.768       4.751       4.733       4.711       4.686       4.657    
        4.622       4.580       4.529       4.469       4.401       4.324       4.236       4.139       4.032       3.916    
        3.792       3.662       3.527       3.388       3.250       3.112       2.972       2.833       2.694       2.555    
        2.418       2.282       2.146       2.013       1.882       1.752       1.625       1.499       1.376       1.253    
        1.132       1.014      0.8967      0.7786      0.6583      0.5348      0.4066      0.2735      0.1346       0.000    
  40    10.00       9.852       9.702       9.552       9.402       9.252       9.104       8.957       8.810       8.663    
        8.516       8.370       8.224       8.079       7.935       7.791       7.649       7.508       7.367       7.226    
        7.085       6.944       6.805       6.669       6.532       6.394       6.259       6.128       6.001       5.879    
        5.764       5.654       5.552       5.456       5.368       5.289       5.217       5.153       5.098       5.050    
        5.010       4.976       4.947       4.922       4.901       4.882       4.866       4.851       4.836       4.823    
        4.810       4.796       4.781       4.765       4.747       4.728       4.705       4.680       4.650       4.617    
        4.577       4.529       4.473       4.408       4.335       4.252       4.161       4.061       3.952       3.836    
        3.712       3.583       3.450       3.315       3.180       3.044       2.908       2.773       2.638       2.504    
        2.371       2.238       2.107       1.977       1.849       1.723       1.598       1.476       1.354       1.234    
        1.116       1.000      0.8851      0.7681      0.6485      0.5256      0.3975      0.2673      0.1358       0.000    
  41    10.00       9.856       9.709       9.559       9.410       9.261       9.113       8.965       8.818       8.670    
        8.523       8.377       8.231       8.086       7.942       7.800       7.659       7.520       7.380       7.242    
        7.103       6.965       6.829       6.695       6.564       6.434       6.303       6.177       6.054       5.936    
        5.823       5.716       5.614       5.518       5.429       5.348       5.273       5.204       5.144       5.090    
        5.044       5.005       4.970       4.940       4.914       4.891       4.870       4.851       4.833       4.816    
        4.799       4.782       4.764       4.744       4.723       4.699       4.673       4.642       4.608       4.570    
        4.525       4.472       4.409       4.339       4.261       4.175       4.080       3.978       3.868       3.752    
        3.629       3.502       3.372       3.241       3.108       2.976       2.845       2.715       2.584       2.454    
        2.324       2.196       2.068       1.942       1.817       1.694       1.572       1.452       1.333       1.216    
        1.101      0.9870      0.8726      0.7565      0.6373      0.5161      0.3927      0.2657      0.1353       0.000    
  42    10.00       9.857       9.711       9.563       9.415       9.267       9.119       8.972       8.824       8.677    
        8.529       8.382       8.236       8.092       7.949       7.807       7.668       7.531       7.394       7.257    
        7.121       6.986       6.852       6.721       6.594       6.469       6.345       6.223       6.104       5.990    
        5.880       5.775       5.675       5.580       5.491       5.408       5.332       5.259       5.193       5.135    
        5.083       5.037       4.997       4.961       4.930       4.901       4.875       4.851       4.829       4.808    
        4.787       4.766       4.744       4.720       4.694       4.666       4.634       4.599       4.560       4.516    
        4.466       4.407       4.339       4.264       4.182       4.092       3.995       3.891       3.781       3.665    
        3.544       3.420       3.293       3.164       3.036       2.908       2.783       2.656       2.530       2.404    
        2.278       2.153       2.029       1.907       1.785       1.665       1.546       1.429       1.312       1.198    
[...]
        1.209       1.186       1.167       1.150       1.134       1.119       1.106       1.093       1.081       1.069    
        1.058       1.046       1.033       1.020       1.006      0.9903      0.9729      0.9533      0.9311      0.9055    
       0.8760      0.8419      0.8017      0.7537      0.6958      0.6243      0.5350      0.4244      0.2552       0.000    
  87    10.00       9.701       9.400       9.095       8.785       8.475       8.179       7.907       7.662       7.444    
        7.252       7.087       6.945       6.826       6.726       6.643       6.575       6.519       6.473       6.435    
        6.404       6.379       6.357       6.339       6.322       6.308       6.295       6.284       6.273       6.263    
        6.254       6.244       6.235       6.226       6.215       6.205       6.194       6.183       6.171       6.156    
        6.139       6.119       6.093       6.060       6.019       5.965       5.897       5.810       5.691       5.524    
        5.311       5.057       4.764       4.436       4.081       3.712       3.342       2.985       2.651       2.350    
        2.096       1.901       1.748       1.622       1.519       1.436       1.370       1.318       1.275       1.240    
        1.212       1.188       1.168       1.150       1.134       1.119       1.105       1.093       1.081       1.069    
        1.057       1.045       1.033       1.020       1.005      0.9898      0.9725      0.9530      0.9307      0.9050    
       0.8750      0.8400      0.7985      0.7493      0.6890      0.6134      0.5190      0.4004      0.2504       0.000    
  88    10.00       9.709       9.415       9.117       8.814       8.511       8.219       7.949       7.702       7.480    
        7.285       7.114       6.968       6.845       6.741       6.654       6.583       6.525       6.478       6.439    
        6.407       6.381       6.359       6.340       6.323       6.309       6.296       6.285       6.274       6.264    
        6.255       6.245       6.236       6.226       6.216       6.205       6.194       6.182       6.169       6.154    
        6.136       6.114       6.086       6.051       6.006       5.949       5.876       5.783       5.658       5.487    
        5.272       5.020       4.732       4.411       4.067       3.710       3.351       3.004       2.679       2.382    
        2.130       1.932       1.774       1.643       1.536       1.450       1.381       1.325       1.281       1.245    
        1.214       1.189       1.168       1.150       1.134       1.119       1.105       1.092       1.080       1.068    
        1.056       1.044       1.032       1.019       1.005      0.9890      0.9718      0.9524      0.9301      0.9043    
       0.8741      0.8384      0.7958      0.7445      0.6826      0.6046      0.5060      0.3812      0.2188       0.000    
  89    10.00       9.718       9.433       9.143       8.849       8.553       8.267       7.997       7.749       7.523    
        7.322       7.147       6.995       6.866       6.757       6.667       6.593       6.532       6.483       6.443    
        6.411       6.384       6.361       6.341       6.324       6.310       6.297       6.286       6.275       6.265    
        6.256       6.246       6.237       6.227       6.217       6.206       6.194       6.182       6.168       6.152    
        6.133       6.108       6.078       6.040       5.991       5.930       5.851       5.749       5.614       5.441    
        5.227       4.977       4.694       4.383       4.051       3.708       3.363       3.027       2.711       2.423    
        2.173       1.970       1.806       1.669       1.557       1.467       1.394       1.335       1.288       1.249    
        1.218       1.191       1.169       1.150       1.134       1.119       1.105       1.091       1.079       1.067    
        1.055       1.043       1.030       1.017       1.003      0.9879      0.9708      0.9515      0.9294      0.9037    
       0.8733      0.8372      0.7937      0.7409      0.6762      0.5961      0.4979      0.3717      0.2072       0.000    
  90    10.00       9.731       9.455       9.173       8.888       8.602       8.320       8.052       7.802       7.572    
        7.366       7.183       7.026       6.890       6.776       6.681       6.603       6.540       6.489       6.448    
        6.414       6.386       6.362       6.343       6.326       6.311       6.298       6.287       6.277       6.267    
        6.257       6.248       6.239       6.229       6.218       6.207       6.195       6.182       6.167       6.149    
        6.128       6.102       6.069       6.027       5.973       5.905       5.819       5.707       5.564       5.388    
        5.175       4.928       4.652       4.351       4.033       3.705       3.376       3.054       2.748       2.470    
        2.225       2.016       1.843       1.701       1.583       1.487       1.409       1.346       1.296       1.255    
        1.221       1.194       1.171       1.151       1.133       1.118       1.104       1.090       1.078       1.065    
        1.053       1.041       1.029       1.016       1.002      0.9864      0.9695      0.9505      0.9286      0.9030    
       0.8727      0.8365      0.7925      0.7388      0.6726      0.5907      0.4896      0.3646      0.2033       0.000    
  91    10.00       9.748       9.482       9.207       8.930       8.653       8.379       8.113       7.861       7.627    
        7.415       7.225       7.060       6.917       6.797       6.697       6.615       6.549       6.496       6.453    
        6.417       6.388       6.364       6.344       6.327       6.312       6.300       6.288       6.278       6.268    
        6.259       6.250       6.240       6.231       6.220       6.209       6.196       6.182       6.166       6.147    
        6.123       6.094       6.057       6.010       5.950       5.875       5.779       5.658       5.508       5.328    
        5.115       4.873       4.605       4.318       4.015       3.703       3.390       3.084       2.792       2.522    
        2.280       2.069       1.889       1.738       1.613       1.510       1.427       1.360       1.305       1.261    
        1.226       1.196       1.172       1.151       1.133       1.117       1.103       1.089       1.076       1.064    
        1.051       1.039       1.027       1.014      0.9996      0.9845      0.9679      0.9491      0.9275      0.9023    
       0.8723      0.8362      0.7922      0.7382      0.6713      0.5883      0.4850      0.3566      0.1960       0.000    
  92    10.00       9.765       9.511       9.243       8.972       8.703       8.437       8.178       7.927       7.690    
        7.470       7.273       7.098       6.948       6.820       6.714       6.628       6.558       6.502       6.458    
        6.421       6.391       6.366       6.346       6.328       6.314       6.301       6.290       6.280       6.270    
        6.261       6.252       6.243       6.233       6.222       6.211       6.197       6.182       6.165       6.143    
        6.117       6.085       6.043       5.990       5.923       5.838       5.732       5.601       5.445       5.260    
        5.048       4.813       4.556       4.281       3.996       3.703       3.407       3.117       2.839       2.578    
        2.339       2.128       1.943       1.783       1.649       1.538       1.448       1.375       1.317       1.269    
        1.231       1.199       1.174       1.152       1.133       1.116       1.101       1.088       1.074       1.062    
        1.049       1.037       1.024       1.011      0.9971      0.9821      0.9658      0.9474      0.9263      0.9015    
       0.8720      0.8363      0.7927      0.7388      0.6719      0.5884      0.4843      0.3548      0.1946       0.000    
  93    10.00       9.782       9.539       9.277       9.011       8.748       8.489       8.237       7.993       7.758    
        7.535       7.327       7.142       6.982       6.846       6.732       6.641       6.568       6.510       6.463    
        6.425       6.394       6.368       6.347       6.330       6.315       6.302       6.291       6.282       6.272    
        6.263       6.254       6.245       6.236       6.225       6.213       6.199       6.183       6.163       6.140    
        6.110       6.073       6.025       5.965       5.889       5.795       5.678       5.538       5.376       5.186    
        4.976       4.749       4.503       4.244       3.977       3.703       3.425       3.151       2.888       2.638    
        2.401       2.189       2.004       1.836       1.691       1.571       1.473       1.394       1.330       1.279    
        1.237       1.203       1.175       1.152       1.133       1.116       1.100       1.086       1.073       1.060    
        1.047       1.034       1.021       1.008      0.9940      0.9793      0.9634      0.9455      0.9248      0.9007    
       0.8718      0.8368      0.7938      0.7404      0.6738      0.5905      0.4862      0.3562      0.1956       0.000    
  94    10.00       9.797       9.564       9.308       9.046       8.788       8.535       8.288       8.049       7.819    
        7.598       7.388       7.194       7.021       6.873       6.751       6.655       6.580       6.519       6.469    
        6.429       6.397       6.370       6.349       6.331       6.316       6.304       6.293       6.283       6.274    
        6.266       6.257       6.248       6.239       6.228       6.215       6.201       6.183       6.162       6.134    
        6.101       6.058       6.002       5.934       5.848       5.744       5.615       5.467       5.299       5.106    
        4.903       4.686       4.451       4.207       3.959       3.704       3.445       3.186       2.935       2.698    
        2.469       2.255       2.068       1.895       1.739       1.609       1.503       1.417       1.346       1.290    
        1.244       1.207       1.177       1.153       1.133       1.115       1.099       1.084       1.070       1.057    
        1.044       1.031       1.018       1.005      0.9904      0.9759      0.9606      0.9432      0.9231      0.8996    
       0.8715      0.8373      0.7952      0.7426      0.6767      0.5938      0.4894      0.3588      0.1969       0.000    
  95    10.00       9.810       9.586       9.335       9.076       8.822       8.574       8.331       8.096       7.870    
        7.652       7.444       7.248       7.064       6.901       6.773       6.674       6.593       6.528       6.475    
        6.433       6.400       6.372       6.350       6.332       6.317       6.305       6.295       6.285       6.277    
        6.268       6.260       6.252       6.243       6.232       6.218       6.203       6.183       6.158       6.128    
        6.088       6.037       5.973       5.894       5.796       5.681       5.545       5.389       5.214       5.029    
        4.836       4.625       4.401       4.173       3.942       3.705       3.464       3.220       2.982       2.757    
        2.535       2.322       2.136       1.960       1.794       1.654       1.538       1.443       1.366       1.303    
        1.252       1.211       1.179       1.154       1.132       1.114       1.097       1.082       1.068       1.055    
        1.042       1.029       1.015       1.001      0.9865      0.9721      0.9573      0.9406      0.9212      0.8984    
       0.8711      0.8379      0.7967      0.7451      0.6800      0.5974      0.4928      0.3606      0.1949       0.000    
  96    10.00       9.821       9.604       9.357       9.101       8.851       8.606       8.367       8.135       7.911    
        7.695       7.489       7.291       7.101       6.934       6.801       6.693       6.606       6.537       6.481    
        6.437       6.402       6.374       6.351       6.332       6.318       6.306       6.296       6.287       6.279    
        6.271       6.263       6.255       6.246       6.235       6.221       6.205       6.183       6.153       6.118    
        6.070       6.008       5.933       5.841       5.734       5.612       5.473       5.317       5.146       4.966    
        4.774       4.568       4.359       4.147       3.927       3.704       3.481       3.253       3.025       2.808    
        2.596       2.387       2.198       2.024       1.857       1.709       1.581       1.476       1.390       1.319    
        1.263       1.217       1.182       1.155       1.132       1.113       1.096       1.081       1.066       1.053    
        1.039       1.026       1.012      0.9973      0.9821      0.9679      0.9538      0.9377      0.9190      0.8970    
       0.8706      0.8383      0.7981      0.7476      0.6832      0.6010      0.4955      0.3609      0.1909       0.000    
  97    10.00       9.831       9.619       9.374       9.122       8.873       8.631       8.395       8.166       7.944    
        7.730       7.524       7.326       7.137       6.967       6.826       6.711       6.618       6.545       6.487    
        6.441       6.405       6.375       6.352       6.333       6.318       6.307       6.298       6.289       6.281    
        6.273       6.266       6.258       6.249       6.238       6.224       6.206       6.181       6.146       6.103    
        6.044       5.971       5.887       5.790       5.680       5.556       5.416       5.261       5.092       4.912    
        4.718       4.523       4.329       4.125       3.916       3.704       3.494       3.281       3.063       2.852    
        2.644       2.441       2.252       2.077       1.914       1.766       1.632       1.516       1.419       1.339    
        1.275       1.224       1.185       1.157       1.133       1.112       1.095       1.079       1.064       1.051    
        1.037       1.024       1.010      0.9947      0.9783      0.9633      0.9500      0.9346      0.9167      0.8954    
       0.8698      0.8385      0.7994      0.7498      0.6862      0.6040      0.4972      0.3581      0.1864       0.000    
  98    10.00       9.839       9.630       9.387       9.136       8.891       8.650       8.416       8.188       7.968    
        7.756       7.551       7.356       7.169       6.996       6.848       6.726       6.629       6.552       6.492    
        6.444       6.407       6.377       6.351       6.332       6.319       6.308       6.299       6.290       6.283    
        6.275       6.268       6.261       6.252       6.240       6.228       6.208       6.176       6.134       6.081    
        6.015       5.939       5.852       5.753       5.640       5.514       5.374       5.219       5.050       4.869    
        4.679       4.492       4.305       4.108       3.906       3.702       3.500       3.302       3.098       2.888    
        2.681       2.480       2.292       2.118       1.956       1.809       1.676       1.557       1.453       1.364    
        1.291       1.232       1.189       1.158       1.133       1.112       1.093       1.077       1.062       1.049    
        1.035       1.022       1.008      0.9924      0.9754      0.9599      0.9464      0.9316      0.9142      0.8935    
       0.8688      0.8385      0.8003      0.7516      0.6886      0.6065      0.4983      0.3549      0.1822       0.000    
  99    10.00       9.845       9.638       9.395       9.146       8.902       8.663       8.430       8.203       7.984    
        7.773       7.570       7.376       7.192       7.019       6.865       6.738       6.637       6.557       6.495    
        6.447       6.409       6.377       6.351       6.332       6.319       6.309       6.300       6.291       6.284    
        6.277       6.270       6.263       6.254       6.243       6.231       6.207       6.169       6.121       6.063    
        5.995       5.917       5.829       5.728       5.614       5.487       5.345       5.190       5.019       4.836    
        4.653       4.476       4.289       4.097       3.900       3.701       3.504       3.311       3.122       2.919    
        2.707       2.507       2.319       2.145       1.984       1.837       1.704       1.585       1.480       1.388    
        1.308       1.242       1.193       1.160       1.133       1.111       1.092       1.076       1.061       1.047    
        1.034       1.020       1.006      0.9912      0.9751      0.9578      0.9422      0.9282      0.9120      0.8917    
       0.8674      0.8382      0.8009      0.7530      0.6905      0.6084      0.4992      0.3525      0.1789       0.000    
 100    10.00       9.848       9.642       9.399       9.151       8.907       8.669       8.437       8.211       7.992    
        7.782       7.580       7.387       7.204       7.033       6.877       6.745       6.642       6.560       6.498    
        6.449       6.410       6.377       6.350       6.331       6.319       6.309       6.300       6.292       6.284    
        6.278       6.271       6.264       6.255       6.245       6.232       6.206       6.163       6.113       6.054    
        5.985       5.907       5.817       5.715       5.601       5.473       5.331       5.175       5.004       4.817    
        4.640       4.469       4.282       4.091       3.896       3.701       3.507       3.317       3.134       2.935    
        2.721       2.520       2.333       2.159       1.998       1.851       1.718       1.599       1.493       1.400    
        1.320       1.250       1.197       1.161       1.134       1.111       1.092       1.075       1.060       1.046    
        1.033       1.019       1.005      0.9906      0.9750      0.9582      0.9401      0.9244      0.9102      0.8905    
       0.8666      0.8380      0.8013      0.7537      0.6917      0.6096      0.4998      0.3511      0.1771       0.000    

 HEAD WILL BE SAVED ON UNIT 1017 AT END OF TIME STEP    1, STRESS PERIOD    1


  VOLUME BUDGET FOR ENTIRE MODEL AT END OF TIME STEP    1, STRESS PERIOD   1
  ---------------------------------------------------------------------------------------------------

     CUMULATIVE VOLUME      L**3       RATES FOR THIS TIME STEP      L**3/T          PACKAGE NAME    
     ------------------                 ------------------------                     ----------------

           IN:                                      IN:
           ---                                      ---
                 RCH =       3.1076E-04                   RCH =       3.1076E-04     RCHA            
                 CHD =       2.6260E-03                   CHD =       2.6260E-03     CHD             

            TOTAL IN =       2.9367E-03              TOTAL IN =       2.9367E-03

          OUT:                                     OUT:
          ----                                     ----
                 RCH =           0.0000                   RCH =           0.0000     RCHA            
                 CHD =       2.9258E-03                   CHD =       2.9258E-03     CHD             

           TOTAL OUT =       2.9258E-03             TOTAL OUT =       2.9258E-03

            IN - OUT =       1.0885E-05              IN - OUT =       1.0885E-05

 PERCENT DISCREPANCY =           0.37     PERCENT DISCREPANCY =           0.37




         TIME SUMMARY AT END OF TIME STEP    1 IN STRESS PERIOD    1
                    SECONDS     MINUTES      HOURS       DAYS        YEARS
                    -----------------------------------------------------------
   TIME STEP LENGTH  1.0000     1.66667E-02 2.77778E-04 1.15741E-05 3.16881E-08
 STRESS PERIOD TIME  1.0000     1.66667E-02 2.77778E-04 1.15741E-05 3.16881E-08
         TOTAL TIME  1.0000     1.66667E-02 2.77778E-04 1.15741E-05 3.16881E-08
