                                   MODFLOW 6
                U.S. GEOLOGICAL SURVEY MODULAR HYDROLOGIC MODEL
                          GROUNDWATER FLOW MODEL (GWF)
                            VERSION 6.0.4 03/13/2019

   MODFLOW 6 compiled Mar 21 2019 15:37:31 with IFORT compiler (ver. 19.0.0)

This software has been approved for release by the U.S. Geological 
Survey (USGS). Although the software has been subjected to rigorous 
review, the USGS reserves the right to update the software as needed 
pursuant to further analysis and review. No warranty, expressed or 
implied, is made by the USGS or the U.S. Government as to the 
functionality of the software and related material nor shall the 
fact of release constitute any such warranty. Furthermore, the 
software is released on condition that neither the USGS nor the U.S. 
Government shall be held liable for any damages resulting from its 
authorized or unauthorized use. Also refer to the USGS Water 
Resources Software User Rights Notice for complete use, copyright, 
and distribution information.


MODFLOW was compiled using uniform precision.
Precision of REAL variables: 15


 OPENED test_SFR.dis
 FILE TYPE:DIS6                   UNIT 1005   STATUS:OLD                 
 FORMAT:FORMATTED              ACCESS:SEQUENTIAL          
 ACTION:READ                


 OPENED test_SFR.ic
 FILE TYPE:IC6                    UNIT 1006   STATUS:OLD                 
 FORMAT:FORMATTED              ACCESS:SEQUENTIAL          
 ACTION:READ                


 OPENED test_SFR.oc
 FILE TYPE:OC6                    UNIT 1007   STATUS:OLD                 
 FORMAT:FORMATTED              ACCESS:SEQUENTIAL          
 ACTION:READ                


 OPENED test_SFR.npf
 FILE TYPE:NPF6                   UNIT 1008   STATUS:OLD                 
 FORMAT:FORMATTED              ACCESS:SEQUENTIAL          
 ACTION:READ                


 OPENED test_SFR.sfr
 FILE TYPE:SFR6                   UNIT 1009   STATUS:OLD                 
 FORMAT:FORMATTED              ACCESS:SEQUENTIAL          
 ACTION:READ                


 OPENED test_SFR.rcha
 FILE TYPE:RCH6                   UNIT 1010   STATUS:OLD                 
 FORMAT:FORMATTED              ACCESS:SEQUENTIAL          
 ACTION:READ                


 DIS -- STRUCTURED GRID DISCRETIZATION PACKAGE, VERSION 2 : 3/27/2014 - INPUT READ FROM UNIT 1005


 # File generated by Flopy version 3.3.2 on 01/09/2021 at 17:22:25.
 PROCESSING DISCRETIZATION OPTIONS
 END OF DISCRETIZATION OPTIONS
 MODEL LENGTH UNIT IS UNDEFINED
 PROCESSING DISCRETIZATION DIMENSIONS
    NLAY =       1
    NROW =      30
    NCOL =      30
 END OF DISCRETIZATION DIMENSIONS
 PROCESSING GRIDDATA

 TOP ELEVATION OF LAYER 1 =   10.00000    

   MODEL LAYER BOTTOM EL. =  -10.00000    

                  IDOMAIN = 1
 END PROCESSING GRIDDATA

 NPF -- NODE PROPERTY FLOW PACKAGE, VERSION 1, 3/30/2015 INPUT READ FROM UNIT 1008


 # File generated by Flopy version 3.3.2 on 01/09/2021 at 17:22:25.
 PROCESSING NPF OPTIONS
    CELL-BY-CELL FLOW INFORMATION WILL BE SAVED TO BINARY FILE WHENEVER ICBCFL IS NOT ZERO.
 END OF NPF OPTIONS

 RCH   -- RCH PACKAGE, VERSION 8, 2/22/2014 INPUT READ FROM UNIT 1010
 # File generated by Flopy version 3.3.2 on 01/09/2021 at 17:22:25.

 PROCESSING RCH OPTIONS
    RECHARGE INPUT WILL BE READ AS ARRAY(S).
    FLOWS WILL BE SAVED TO BUDGET FILE SPECIFIED IN OUTPUT CONTROL
 END OF RCH OPTIONS

 SFR   -- SFR PACKAGE, VERSION 8, 2/22/2014 INPUT READ FROM UNIT 1009
 # File generated by Flopy version 3.3.2 on 01/09/2021 at 17:22:25.

 PROCESSING SFR OPTIONS
    SFR STAGES WILL BE PRINTED TO LISTING FILE.
    FLOWS WILL BE SAVED TO BUDGET FILE SPECIFIED IN OUTPUT CONTROL

 OPENED test_SFR.stage.bin
 FILE TYPE:DATA(BINARY)   UNIT 1012   STATUS:REPLACE             
 FORMAT:UNFORMATTED            ACCESS:STREAM              
 ACTION:READWRITE           

    SFR  STAGE  WILL BE SAVED TO FILE: test_SFR.stage.bin                                                                                                                                                                                                                                                                                                                                                                                                                                                                                                                                                                                                                                                                                                                                                                                                                                                                                                                                                                                                                      
    OPENED ON UNIT:    1012

 OPENED test_SFR.sfr.cbc
 FILE TYPE:DATA(BINARY)   UNIT 1013   STATUS:REPLACE             
 FORMAT:UNFORMATTED            ACCESS:STREAM              
 ACTION:READWRITE           

    SFR  BUDGET  WILL BE SAVED TO FILE: test_SFR.sfr.cbc                                                                                                                                                                                                                                                                                                                                                                                                                                                                                                                                                                                                                                                                                                                                                                                                                                                                                                                                                                                                                        
    OPENED ON UNIT:    1013

 OPENED test_SFR.sfr.obs
 FILE TYPE:OBS   UNIT 1014   STATUS:OLD                 
 FORMAT:FORMATTED              ACCESS:SEQUENTIAL          
 ACTION:READ                

 END OF SFR OPTIONS

 PROCESSING SFR DIMENSIONS
    NREACHES = 30
 END OF SFR DIMENSIONS

 IC -- INITIAL CONDITIONS PACKAGE, VERSION 8, 3/28/2015 INPUT READ FROM UNIT 1006
 # File generated by Flopy version 3.3.2 on 01/09/2021 at 17:22:25.
 PROCESSING GRIDDATA

     INITIAL HEAD =   1.000000    
 END PROCESSING GRIDDATA
 PROCESSING GRIDDATA

                ICELLTYPE = 0

                        K =  0.1000000E-03
 K33 not provided.  Assuming K33 = K.
 K22 not provided.  Assuming K22 = K.
 END PROCESSING GRIDDATA
    BINARY GRID INFORMATION WILL BE WRITTEN TO:
      UNIT NUMBER: 1015
      FILE NAME: C:\Users\emmal\Documents\GitHub\FloPy-guide-\notebooks\fr\mf6\SFR pack\workspace\test_SFR.dis.grb

 OPENED C:\Users\emmal\Documents\GitHub\FloPy-guide-\notebooks\fr\mf6\SFR pack\workspace\test_SFR.dis.grb
 FILE TYPE:DATA(BINARY)   UNIT 1015   STATUS:REPLACE             
 FORMAT:UNFORMATTED            ACCESS:STREAM              
 ACTION:READWRITE           

      THE LAST TIME STEP WILL BE PRINTED
      THE LAST TIME STEP WILL BE PRINTED
 # File generated by Flopy version 3.3.2 on 01/09/2021 at 17:22:25.
 PROCESSING OC OPTIONS
    BUDGET INFORMATION WILL BE WRITTEN TO:
      UNIT NUMBER: 1016
      FILE NAME: test_SFR.cbc

 OPENED test_SFR.cbc
 FILE TYPE:DATA(BINARY)   UNIT 1016   STATUS:REPLACE             
 FORMAT:UNFORMATTED            ACCESS:STREAM              
 ACTION:READWRITE           

    HEAD INFORMATION WILL BE WRITTEN TO:
      UNIT NUMBER: 1017
      FILE NAME: test_SFR.hds

 OPENED test_SFR.hds
 FILE TYPE:DATA(BINARY)   UNIT 1017   STATUS:REPLACE             
 FORMAT:UNFORMATTED            ACCESS:STREAM              
 ACTION:READWRITE           

 END OF OC OPTIONS

The observation utility is active for "SFR"
 # File generated by Flopy version 3.3.2 on 01/09/2021 at 17:22:25.

Processing observation options:



 PROCESSING SFR PACKAGEDATA
 END OF SFR PACKAGEDATA

 PROCESSING SFR CONNECTIONDATA
 END OF SFR CONNECTIONDATA

 BEGIN READING OUTPUT CONTROL FOR STRESS PERIOD 1
      THE LAST TIME STEP WILL BE SAVED
      THE LAST TIME STEP WILL BE SAVED
      THE LAST TIME STEP WILL BE PRINTED

 END READING OUTPUT CONTROL FOR STRESS PERIOD 1

                 RECHARGE =  0.3000000E-06
 UBDSV1 SAVING     FLOW-JA-FACE ON UNIT   1016 AT TIME STEP      1, STRESS PERIOD      1
 UBDSV06 SAVING       DATA-SPDIS IN MODEL TEST_SFR         PACKAGE NPF             CONNECTED TO MODEL TEST_SFR         PACKAGE NPF              ON UNIT   1016 AT TIME STEP      1, STRESS PERIOD      1
 UBDSV06 SAVING              RCH IN MODEL TEST_SFR         PACKAGE TEST_SFR        CONNECTED TO MODEL TEST_SFR         PACKAGE RCHA             ON UNIT   1016 AT TIME STEP      1, STRESS PERIOD      1
 UBDSV06 SAVING              SFR IN MODEL TEST_SFR         PACKAGE TEST_SFR        CONNECTED TO MODEL TEST_SFR         PACKAGE SFR              ON UNIT   1016 AT TIME STEP      1, STRESS PERIOD      1
 UBDSV06 SAVING     FLOW-JA-FACE IN MODEL TEST_SFR         PACKAGE SFR             CONNECTED TO MODEL TEST_SFR         PACKAGE SFR              ON UNIT   1013 AT TIME STEP      1, STRESS PERIOD      1
 UBDSV06 SAVING              GWF IN MODEL TEST_SFR         PACKAGE SFR             CONNECTED TO MODEL TEST_SFR         PACKAGE TEST_SFR         ON UNIT   1013 AT TIME STEP      1, STRESS PERIOD      1
 UBDSV06 SAVING       EXT-INFLOW IN MODEL TEST_SFR         PACKAGE SFR             CONNECTED TO MODEL TEST_SFR         PACKAGE SFR              ON UNIT   1013 AT TIME STEP      1, STRESS PERIOD      1
 UBDSV06 SAVING         RAINFALL IN MODEL TEST_SFR         PACKAGE SFR             CONNECTED TO MODEL TEST_SFR         PACKAGE SFR              ON UNIT   1013 AT TIME STEP      1, STRESS PERIOD      1
 UBDSV06 SAVING           RUNOFF IN MODEL TEST_SFR         PACKAGE SFR             CONNECTED TO MODEL TEST_SFR         PACKAGE SFR              ON UNIT   1013 AT TIME STEP      1, STRESS PERIOD      1
 UBDSV06 SAVING      EVAPORATION IN MODEL TEST_SFR         PACKAGE SFR             CONNECTED TO MODEL TEST_SFR         PACKAGE SFR              ON UNIT   1013 AT TIME STEP      1, STRESS PERIOD      1
 UBDSV06 SAVING      EXT-OUTFLOW IN MODEL TEST_SFR         PACKAGE SFR             CONNECTED TO MODEL TEST_SFR         PACKAGE SFR              ON UNIT   1013 AT TIME STEP      1, STRESS PERIOD      1

 HEAD WILL BE SAVED ON UNIT 1017 AT END OF TIME STEP    1, STRESS PERIOD    1



 SFR (SFR) STAGE   PERIOD      1   STEP        1
 ------------------------------------------------------------------------------------------------
 REACH  REACH                  REACH      REACH      REACH       GWF      STREAMBED   STREAMBED  
  NO.   (LAYER,ROW,COLUMN)     STAGE      DEPTH      WIDTH      HEAD     CONDUCTANCE  GRADIENT   
 ------------------------------------------------------------------------------------------------
      1 (1,16,1)              10.29      1.292      5.000      10.52      0.1000E-02 -0.1134     
      2 (1,16,2)              10.15      1.292      5.000      10.48      0.1000E-02 -0.1621     
      3 (1,16,3)              10.02      1.292      5.000      10.42      0.1000E-02 -0.2006     
      4 (1,16,4)              9.878      1.292      5.000      10.34      0.1000E-02 -0.2329     
      5 (1,16,5)              9.740      1.292      5.000      10.26      0.1000E-02 -0.2608     
      6 (1,16,6)              9.602      1.292      5.000      10.17      0.1000E-02 -0.2856     
      7 (1,16,7)              9.464      1.292      5.000      10.08      0.1000E-02 -0.3079     
      8 (1,16,8)              9.327      1.292      5.000      9.983      0.1000E-02 -0.3283     
      9 (1,16,9)              9.189      1.292      5.000      9.883      0.1000E-02 -0.3472     
     10 (1,16,10)             9.051      1.292      5.000      9.780      0.1000E-02 -0.3649     
     11 (1,16,11)             8.913      1.292      5.000      9.676      0.1000E-02 -0.3816     
     12 (1,16,12)             8.775      1.292      5.000      9.570      0.1000E-02 -0.3976     
     13 (1,16,13)             8.637      1.292      5.000      9.463      0.1000E-02 -0.4131     
     14 (1,16,14)             8.499      1.292      5.000      9.355      0.1000E-02 -0.4282     
     15 (1,16,15)             8.361      1.292      5.000      9.247      0.1000E-02 -0.4430     
     16 (1,16,16)             8.223      1.292      5.000      9.139      0.1000E-02 -0.4578     
     17 (1,16,17)             8.085      1.292      5.000      9.031      0.1000E-02 -0.4727     
     18 (1,16,18)             7.947      1.292      5.000      8.923      0.1000E-02 -0.4878     
     19 (1,16,19)             7.810      1.292      5.000      8.816      0.1000E-02 -0.5032     
     20 (1,16,20)             7.672      1.292      5.000      8.710      0.1000E-02 -0.5192     
     21 (1,16,21)             7.534      1.292      5.000      8.606      0.1000E-02 -0.5359     
     22 (1,16,22)             7.396      1.292      5.000      8.503      0.1000E-02 -0.5536     
     23 (1,16,23)             7.258      1.292      5.000      8.403      0.1000E-02 -0.5725     
     24 (1,16,24)             7.120      1.292      5.000      8.306      0.1000E-02 -0.5929     
     25 (1,16,25)             6.982      1.293      5.000      8.213      0.1000E-02 -0.6152     
     26 (1,16,26)             6.844      1.293      5.000      8.124      0.1000E-02 -0.6399     
     27 (1,16,27)             6.706      1.293      5.000      8.042      0.1000E-02 -0.6679     
     28 (1,16,28)             6.568      1.293      5.000      7.969      0.1000E-02 -0.7001     
     29 (1,16,29)             6.431      1.293      5.000      7.908      0.1000E-02 -0.7387     
     30 (1,16,30)             6.293      1.293      5.000      7.867      0.1000E-02 -0.7873     


  SFR BUDGET FOR ENTIRE MODEL AT END OF TIME STEP    1, STRESS PERIOD   1
  ------------------------------------------------------------------------------

     CUMULATIVE SFR      L**3       RATES FOR THIS TIME STEP      L**3/T
     ------------------                 ------------------------

           IN:                                      IN:
           ---                                      ---
          EXT-INFLOW =          30.0000            EXT-INFLOW =          30.0000
            RAINFALL =           0.0000              RAINFALL =           0.0000
              RUNOFF =           0.0000                RUNOFF =           0.0000
                 GWF =       2.7024E-02                   GWF =       2.7024E-02
         EVAPORATION =           0.0000           EVAPORATION =           0.0000
         EXT-OUTFLOW =           0.0000           EXT-OUTFLOW =           0.0000

            TOTAL IN =          30.0270              TOTAL IN =          30.0270

          OUT:                                     OUT:
          ----                                     ----
          EXT-INFLOW =           0.0000            EXT-INFLOW =           0.0000
            RAINFALL =           0.0000              RAINFALL =           0.0000
              RUNOFF =           0.0000                RUNOFF =           0.0000
                 GWF =           0.0000                   GWF =           0.0000
         EVAPORATION =           0.0000           EVAPORATION =           0.0000
         EXT-OUTFLOW =          30.0270           EXT-OUTFLOW =          30.0270

           TOTAL OUT =          30.0270             TOTAL OUT =          30.0270

            IN - OUT =      -3.5527E-15              IN - OUT =      -3.5527E-15

 PERCENT DISCREPANCY =          -0.00     PERCENT DISCREPANCY =          -0.00



  VOLUME BUDGET FOR ENTIRE MODEL AT END OF TIME STEP    1, STRESS PERIOD   1
  ---------------------------------------------------------------------------------------------------

     CUMULATIVE VOLUME      L**3       RATES FOR THIS TIME STEP      L**3/T          PACKAGE NAME    
     ------------------                 ------------------------                     ----------------

           IN:                                      IN:
           ---                                      ---
                 RCH =       2.7000E-02                   RCH =       2.7000E-02     RCHA            
                 SFR =           0.0000                   SFR =           0.0000     SFR             

            TOTAL IN =       2.7000E-02              TOTAL IN =       2.7000E-02

          OUT:                                     OUT:
          ----                                     ----
                 RCH =           0.0000                   RCH =           0.0000     RCHA            
                 SFR =       2.7023E-02                   SFR =       2.7023E-02     SFR             

           TOTAL OUT =       2.7023E-02             TOTAL OUT =       2.7023E-02

            IN - OUT =      -2.3307E-05              IN - OUT =      -2.3307E-05

 PERCENT DISCREPANCY =          -0.09     PERCENT DISCREPANCY =          -0.09




         TIME SUMMARY AT END OF TIME STEP    1 IN STRESS PERIOD    1
                    SECONDS     MINUTES      HOURS       DAYS        YEARS
                    -----------------------------------------------------------
   TIME STEP LENGTH  1.0000     1.66667E-02 2.77778E-04 1.15741E-05 3.16881E-08
 STRESS PERIOD TIME  1.0000     1.66667E-02 2.77778E-04 1.15741E-05 3.16881E-08
         TOTAL TIME  1.0000     1.66667E-02 2.77778E-04 1.15741E-05 3.16881E-08
