                                   MODFLOW 6
                U.S. GEOLOGICAL SURVEY MODULAR HYDROLOGIC MODEL
                            VERSION 6.0.4 03/13/2019

   MODFLOW 6 compiled Mar 21 2019 15:37:31 with IFORT compiler (ver. 19.0.0)

This software has been approved for release by the U.S. Geological 
Survey (USGS). Although the software has been subjected to rigorous 
review, the USGS reserves the right to update the software as needed 
pursuant to further analysis and review. No warranty, expressed or 
implied, is made by the USGS or the U.S. Government as to the 
functionality of the software and related material nor shall the 
fact of release constitute any such warranty. Furthermore, the 
software is released on condition that neither the USGS nor the U.S. 
Government shall be held liable for any damages resulting from its 
authorized or unauthorized use. Also refer to the USGS Water 
Resources Software User Rights Notice for complete use, copyright, 
and distribution information.


System command used to initiate simulation:
../../../../../exe/mf6

MODFLOW was compiled using uniform precision.
Real Variables
  PRECISION: 15
  KIND: 8
  TINY (smallest non-zero value):    2.225074-308
  HUGE (largest value):    1.797693+308
Integer Variables
  KIND: 4
  HUGE (largest value): 2147483647
  BIT_SIZE: 32
 

 OPENED mfsim.nam
 FILE TYPE:NAM   UNIT 1001   STATUS:OLD                 
 FORMAT:FORMATTED              ACCESS:SEQUENTIAL          
 ACTION:READ                

 # File generated by Flopy version 3.3.2 on 01/09/2021 at 16:36:19.

 READING SIMULATION OPTIONS
 END OF SIMULATION OPTIONS

 READING SIMULATION TIMING

 OPENED DISV.tdis
 FILE TYPE:TDIS   UNIT 1002   STATUS:OLD                 
 FORMAT:FORMATTED              ACCESS:SEQUENTIAL          
 ACTION:READ                


 TDIS -- TEMPORAL DISCRETIZATION PACKAGE,
 VERSION 1 : 11/13/2014 - INPUT READ FROM UNIT 1002
 # File generated by Flopy version 3.3.2 on 01/09/2021 at 16:36:19.
 PROCESSING TDIS OPTIONS
    SIMULATION TIME UNIT IS SECONDS
 END OF TDIS OPTIONS
 PROCESSING TDIS DIMENSIONS
    1 STRESS PERIOD(S) IN SIMULATION
 END OF TDIS DIMENSIONS
 PROCESSING TDIS PERIODDATA


 STRESS PERIOD     LENGTH       TIME STEPS     MULTIPLIER FOR DELT
 ----------------------------------------------------------------------------
        1         1.000000          1                    1.000
 END OF TDIS PERIODDATA
 END OF SIMULATION TIMING

 READING SIMULATION MODELS
    GWF6 model MODELE_RAFFINE will be created as model 1
 END OF SIMULATION MODELS

 READING SIMULATION EXCHANGES
 END OF SIMULATION EXCHANGES

 READING SOLUTIONGROUP

 Creating solution: SLN_1           

 OPENED DISV.ims
 FILE TYPE:IMS   UNIT 1012   STATUS:OLD                 
 FORMAT:FORMATTED              ACCESS:SEQUENTIAL          
 ACTION:READ                

 END OF SIMULATION SOLUTIONGROUP

 IMS -- ITERATIVE MODEL SOLUTION PACKAGE, VERSION 6, 4/28/2017
         INPUT READ FROM UNIT 1012
 # File generated by Flopy version 3.3.2 on 01/09/2021 at 16:36:19.

 PROCESSING IMS OPTIONS
 MODERATE OPTION:
 DEFAULT SOLVER INPUT VALUES REFLECT MODERETELY NONLINEAR MODEL
 END OF IMS OPTIONS
 **UNDER-RELAXATION WILL BE USED***
 
 ***IMS LINEAR SOLVER WILL BE USED***

 IMSLINEAR -- UNSTRUCTURED LINEAR SOLUTION PACKAGE, VERSION 8, 04/28/2017
 
 OUTER ITERATION CONVERGENCE CRITERION     (HCLOSE) =    0.100000E-01
 OUTER ITERATION BOUNDARY FLOW RESIDUAL (RCLOSEBND) =    0.100000E+00
 MAXIMUM NUMBER OF OUTER ITERATIONS        (MXITER) =        50
 SOLVER PRINTOUT INDEX                     (IPRIMS) =         1
 NONLINEAR ITERATION METHOD            (NONLINMETH) =         3
 LINEAR SOLUTION METHOD                   (LINMETH) =         1
 UNDER-RELAXATION WEIGHT REDUCTION FACTOR   (THETA) =    0.900000E+00
 UNDER-RELAXATION WEIGHT INCREASE INCREMENT (KAPPA) =    0.100000E-03
 UNDER-RELAXATION PREVIOUS HISTORY FACTOR   (GAMMA) =    0.000000E+00
 UNDER-RELAXATIONMOMENTUM TERM          (AMOMENTUM) =    0.000000E+00
    MAXIMUM NUMBER OF BACKTRACKS         (NUMTRACK) =         0

       SOLUTION BY THE BICONJUGATE-GRADIENT STABILIZED METHOD
 ------------------------------------------------------------------
 MAXIMUM OF     50 CALLS OF SOLUTION ROUTINE
 MAXIMUM OF    100 INTERNAL ITERATIONS PER CALL TO SOLUTION ROUTINE
 LINEAR ACCELERATION METHOD            = BCGS      
 MATRIX PRECONDITIONING TYPE           = MOD. INCOMPLETE LU  
 MATRIX SCALING APPROACH               = NO SCALING          
 MATRIX REORDERING APPROACH            = ORIGINAL ORDERING        
 NUMBER OF ORTHOGONALIZATIONS          =        0
 HEAD CHANGE CRITERION FOR CLOSURE     =    0.10000E-01
 RESIDUAL CHANGE CRITERION FOR CLOSURE =    0.10000E+00
 RESIDUAL CONVERGENCE OPTION           =        0
 RESIDUAL CONVERGENCE NORM             = INFINITY NORM   
 RELAXATION FACTOR                     =    0.97000E+00



1
                            STRESS PERIOD NO.    1, LENGTH =   1.000000    
                            -----------------------------------------------

                              NUMBER OF TIME STEPS =     1

                               MULTIPLIER FOR DELT =     1.000

                            INITIAL TIME STEP SIZE =   1.000000    


 OUTER ITERATION SUMMARY
 ---------------------------------------------------------------------------------------
                       OUTER     INNER         MAXIMUM                    MAXIMUM CHANGE
                   ITERATION ITERATION          CHANGE                    MODEL-(CELLID)
 ---------------------------------------------------------------------------------------
 Linear Solver             1       100    5.646782E+22                    1_GWF-(1,1281)
 Under-relaxation          1              5.646782E+22                    1_GWF-(1,1281)
 Linear Solver             2        63   -5.646782E+22                    1_GWF-(1,1286)
 Under-relaxation          2             -5.082104E+22                    1_GWF-(1,1286)
 Linear Solver             3        63   -5.646782E+21                    1_GWF-(1,1284)
 Under-relaxation          3             -5.082668E+21                    1_GWF-(1,1284)
 Linear Solver             4        60   -5.641135E+20                    1_GWF-(1,1295)
 Under-relaxation          4             -5.078150E+20                    1_GWF-(1,1295)
 Linear Solver             5        55   -5.629853E+19                    1_GWF-(1,1297)
 Under-relaxation          5             -5.068556E+19                    1_GWF-(1,1297)
 Linear Solver             6        58   -5.612963E+18                    1_GWF-(1,1297)
 Under-relaxation          6             -5.053912E+18                    1_GWF-(1,1297)
 Linear Solver             7        52   -5.590511E+17                    1_GWF-(1,1297)
 Under-relaxation          7             -5.034256E+17                    1_GWF-(1,1297)
 Linear Solver             8        50   -5.562559E+16                    1_GWF-(1,1397)
 Under-relaxation          8             -5.009641E+16                    1_GWF-(1,1397)
 Linear Solver             9        49   -5.529183E+15                    1_GWF-(1,1397)
 Under-relaxation          9             -4.980136E+15                    1_GWF-(1,1397)
 Linear Solver            10        48   -5.490479E+14                    1_GWF-(1,1397)
 Under-relaxation         10             -4.945824E+14                    1_GWF-(1,1397)
 Linear Solver            11        41   -5.446555E+13                    1_GWF-(1,1397)
 Under-relaxation         11             -4.906802E+13                    1_GWF-(1,1397)
 Linear Solver            12        42   -5.397536E+12                    1_GWF-(1,1875)
 Under-relaxation         12             -4.863180E+12                    1_GWF-(1,1875)
 Linear Solver            13        40   -5.343561E+11                    1_GWF-(1,1875)
 Under-relaxation         13             -4.815083E+11                    1_GWF-(1,1875)
 Linear Solver            14        38   -5.284782E+10                    1_GWF-(1,1875)
 Under-relaxation         14             -4.762645E+10                    1_GWF-(1,1875)
 Linear Solver            15        38   -5.221364E+09                    1_GWF-(1,1875)
 Under-relaxation         15             -4.706016E+09                    1_GWF-(1,1875)
 Linear Solver            16        34   -5.153487E+08                    1_GWF-(1,1875)
 Under-relaxation         16             -4.645353E+08                    1_GWF-(1,1875)
 Linear Solver            17        34   -5.081338E+07                    1_GWF-(1,1875)
 Under-relaxation         17             -4.580826E+07                    1_GWF-(1,1875)
 Linear Solver            18        30   -5.005118E+06                     1_GWF-(1,181)
 Under-relaxation         18             -4.512614E+06                     1_GWF-(1,181)
 Linear Solver            19        29    -492504.                        1_GWF-(1,1925)
 Under-relaxation         19              -444090.                        1_GWF-(1,1925)
 Linear Solver            20        27    -48413.1                           1_GWF-(1,5)
 Under-relaxation         20              -43658.9                           1_GWF-(1,5)
 Linear Solver            21        22    -4754.17                        1_GWF-(1,1281)
 Under-relaxation         21              -4287.78                        1_GWF-(1,1281)
 Linear Solver            22        21    -466.411                        1_GWF-(1,1924)
 Under-relaxation         22              -420.703                        1_GWF-(1,1924)
 Linear Solver            23        20    -45.7097                        1_GWF-(1,1925)
 Under-relaxation         23              -41.2347                        1_GWF-(1,1925)
 Linear Solver            24        10    -4.54313                          1_GWF-(1,20)
 Under-relaxation         24              -4.09881                          1_GWF-(1,20)
 Linear Solver            25        15    -1.75778                        1_GWF-(1,1281)
 Under-relaxation         25              -1.58605                        1_GWF-(1,1281)
 Linear Solver            26         4   -0.970000                        1_GWF-(1,1287)
 Under-relaxation         26             -0.875328                        1_GWF-(1,1287)
 Linear Solver            27         5   -0.963485                        1_GWF-(1,1289)
 Under-relaxation         27             -0.869545                        1_GWF-(1,1289)
 Linear Solver            28         4   -0.122622                        1_GWF-(1,1289)
 Under-relaxation         28             -0.110679                        1_GWF-(1,1289)
 Linear Solver            29         2   -1.240897E-02                    1_GWF-(1,1289)
 Under-relaxation         29             -1.120158E-02                    1_GWF-(1,1289)
 Linear Solver            30         1   -4.176454E-03                    1_GWF-(1,1292)

 30 CALLS TO NUMERICAL SOLUTION IN TIME STEP 1 STRESS PERIOD 1
 1055 TOTAL ITERATIONS

 INFORMATION ON VARIABLES STORED IN THE MEMORY MANAGER
 
 Number of allocated integer variables:   95989
 Number of allocated real variables:    123909
 Allocated memory in megabytes:     1.37523    
 

 Run end date and time (yyyy/mm/dd hh:mm:ss): 2021/01/09 16:36:26
 Elapsed run time:  0.785 Seconds

 Normal termination of simulation.
