                                   MODFLOW 6
                U.S. GEOLOGICAL SURVEY MODULAR HYDROLOGIC MODEL
                          GROUNDWATER FLOW MODEL (GWF)
                            VERSION 6.0.4 03/13/2019

   MODFLOW 6 compiled Mar 21 2019 15:37:31 with IFORT compiler (ver. 19.0.0)

This software has been approved for release by the U.S. Geological 
Survey (USGS). Although the software has been subjected to rigorous 
review, the USGS reserves the right to update the software as needed 
pursuant to further analysis and review. No warranty, expressed or 
implied, is made by the USGS or the U.S. Government as to the 
functionality of the software and related material nor shall the 
fact of release constitute any such warranty. Furthermore, the 
software is released on condition that neither the USGS nor the U.S. 
Government shall be held liable for any damages resulting from its 
authorized or unauthorized use. Also refer to the USGS Water 
Resources Software User Rights Notice for complete use, copyright, 
and distribution information.


MODFLOW was compiled using uniform precision.
Precision of REAL variables: 15


 OPENED Modele_raffine.disv
 FILE TYPE:DISV6                  UNIT 1005   STATUS:OLD                 
 FORMAT:FORMATTED              ACCESS:SEQUENTIAL          
 ACTION:READ                


 OPENED Modele_raffine.ic
 FILE TYPE:IC6                    UNIT 1006   STATUS:OLD                 
 FORMAT:FORMATTED              ACCESS:SEQUENTIAL          
 ACTION:READ                


 OPENED Modele_raffine.oc
 FILE TYPE:OC6                    UNIT 1007   STATUS:OLD                 
 FORMAT:FORMATTED              ACCESS:SEQUENTIAL          
 ACTION:READ                


 OPENED Modele_raffine.npf
 FILE TYPE:NPF6                   UNIT 1008   STATUS:OLD                 
 FORMAT:FORMATTED              ACCESS:SEQUENTIAL          
 ACTION:READ                


 OPENED Modele_raffine.rcha
 FILE TYPE:RCH6                   UNIT 1009   STATUS:OLD                 
 FORMAT:FORMATTED              ACCESS:SEQUENTIAL          
 ACTION:READ                


 OPENED Modele_raffine.wel
 FILE TYPE:WEL6                   UNIT 1010   STATUS:OLD                 
 FORMAT:FORMATTED              ACCESS:SEQUENTIAL          
 ACTION:READ                


 OPENED Modele_raffine.riv
 FILE TYPE:RIV6                   UNIT 1011   STATUS:OLD                 
 FORMAT:FORMATTED              ACCESS:SEQUENTIAL          
 ACTION:READ                


 DISV -- VERTEX GRID DISCRETIZATION PACKAGE, VERSION 1 : 12/23/2015 - INPUT READ FROM UNIT 1005



 PROCESSING DISCRETIZATION OPTIONS
   MODEL LENGTH UNIT IS UNDEFINED
 END OF DISCRETIZATION OPTIONS

 PROCESSING DISCRETIZATION DIMENSIONS
   NLAY = 1
   NCPL = 1862
   NVERT = 2243
 END OF DISCRETIZATION DIMENSIONS

 PROCESSING GRIDDATA

 TOP ELEVATION OF LAYER 1 =   100.0000    

   MODEL LAYER BOTTOM EL. =  -50.00000    

                  IDOMAIN = 1
 END PROCESSING GRIDDATA

 PROCESSING VERTICES
   SUCCESSFULLY READ 2243 (X,Y) COORDINATES
   MINIMUM X COORDINATE =     664000.000000000    
   MAXIMUM X COORDINATE =     705000.000000000    
   MINIMUM Y COORDINATE =     6153000.00000000    
   MAXIMUM Y COORDINATE =     6204000.00000000    
 END PROCESSING VERTICES

 PROCESSING CELL2D
   SUCCESSFULLY READ 1862 CELL2D INFORMATION ENTRIES
   MINIMUM X CELL CENTER =     664250.000000000    
   MAXIMUM X CELL CENTER =     704500.000000000    
   MINIMUM Y CELL CENTER =     6153500.00000000    
   MAXIMUM Y CELL CENTER =     6203500.00000000    
   MAXIMUM NUMBER OF CELL2D VERTICES IS 8 FOR CELL 475
 END PROCESSING VERTICES

 NPF -- NODE PROPERTY FLOW PACKAGE, VERSION 1, 3/30/2015 INPUT READ FROM UNIT 1008


 PROCESSING NPF OPTIONS
    CELL-BY-CELL FLOW INFORMATION WILL BE SAVED TO BINARY FILE WHENEVER ICBCFL IS NOT ZERO.
 END OF NPF OPTIONS

 WEL   -- WEL PACKAGE, VERSION 8, 2/22/2014 INPUT READ FROM UNIT 1010

 PROCESSING WEL OPTIONS
    FLOWS WILL BE SAVED TO BUDGET FILE SPECIFIED IN OUTPUT CONTROL
 END OF WEL OPTIONS

 PROCESSING WEL DIMENSIONS
    MAXBOUND =      11
 END OF WEL DIMENSIONS

 RIV   -- RIV PACKAGE, VERSION 8, 2/22/2014 INPUT READ FROM UNIT 1011

 PROCESSING RIV OPTIONS
    FLOWS WILL BE SAVED TO BUDGET FILE SPECIFIED IN OUTPUT CONTROL
 END OF RIV OPTIONS

 PROCESSING RIV DIMENSIONS
    MAXBOUND =     254
 END OF RIV DIMENSIONS

 RCH   -- RCH PACKAGE, VERSION 8, 2/22/2014 INPUT READ FROM UNIT 1009

 PROCESSING RCH OPTIONS
    RECHARGE INPUT WILL BE READ AS ARRAY(S).
    FLOWS WILL BE SAVED TO BUDGET FILE SPECIFIED IN OUTPUT CONTROL
 END OF RCH OPTIONS

 IC -- INITIAL CONDITIONS PACKAGE, VERSION 8, 3/28/2015 INPUT READ FROM UNIT 1006
 PROCESSING GRIDDATA

     INITIAL HEAD =  -49.00000    
 END PROCESSING GRIDDATA
 PROCESSING GRIDDATA

                ICELLTYPE = 0

                        K =  0.1000000E-03
 K33 not provided.  Assuming K33 = K.
 K22 not provided.  Assuming K22 = K.
 END PROCESSING GRIDDATA
    BINARY GRID INFORMATION WILL BE WRITTEN TO:
      UNIT NUMBER: 1013
      FILE NAME: M:\GitHub\FloPy-guide-\notebooks\fr\mf6\discretisation\DISV\workspace\Modele_raffine.disv.grb

 OPENED M:\GitHub\FloPy-guide-\notebooks\fr\mf6\discretisation\DISV\workspace\Modele_raffine.disv.grb
 FILE TYPE:DATA(BINARY)   UNIT 1013   STATUS:REPLACE             
 FORMAT:UNFORMATTED            ACCESS:STREAM              
 ACTION:READWRITE           

      THE LAST TIME STEP WILL BE PRINTED
      THE LAST TIME STEP WILL BE PRINTED
 PROCESSING OC OPTIONS
    BUDGET INFORMATION WILL BE WRITTEN TO:
      UNIT NUMBER: 1014
      FILE NAME: Modele_raffine.cbc

 OPENED Modele_raffine.cbc
 FILE TYPE:DATA(BINARY)   UNIT 1014   STATUS:REPLACE             
 FORMAT:UNFORMATTED            ACCESS:STREAM              
 ACTION:READWRITE           

    HEAD INFORMATION WILL BE WRITTEN TO:
      UNIT NUMBER: 1015
      FILE NAME: Modele_raffine.hds

 OPENED Modele_raffine.hds
 FILE TYPE:DATA(BINARY)   UNIT 1015   STATUS:REPLACE             
 FORMAT:UNFORMATTED            ACCESS:STREAM              
 ACTION:READWRITE           

 END OF OC OPTIONS

 BEGIN READING OUTPUT CONTROL FOR STRESS PERIOD 1
      THE LAST TIME STEP WILL BE SAVED
      THE LAST TIME STEP WILL BE SAVED
      ALL TIME STEPS WILL BE PRINTED

 END READING OUTPUT CONTROL FOR STRESS PERIOD 1

                 RECHARGE =  0.3170979E-08
 UBDSV1 SAVING     FLOW-JA-FACE ON UNIT   1014 AT TIME STEP      1, STRESS PERIOD      1
 UBDSV06 SAVING       DATA-SPDIS IN MODEL MODELE_RAFFINE   PACKAGE NPF             CONNECTED TO MODEL MODELE_RAFFINE   PACKAGE NPF              ON UNIT   1014 AT TIME STEP      1, STRESS PERIOD      1
 UBDSV06 SAVING              WEL IN MODEL MODELE_RAFFINE   PACKAGE MODELE_RAFFINE  CONNECTED TO MODEL MODELE_RAFFINE   PACKAGE WEL              ON UNIT   1014 AT TIME STEP      1, STRESS PERIOD      1
 UBDSV06 SAVING              RIV IN MODEL MODELE_RAFFINE   PACKAGE MODELE_RAFFINE  CONNECTED TO MODEL MODELE_RAFFINE   PACKAGE TET              ON UNIT   1014 AT TIME STEP      1, STRESS PERIOD      1
 UBDSV06 SAVING              RCH IN MODEL MODELE_RAFFINE   PACKAGE MODELE_RAFFINE  CONNECTED TO MODEL MODELE_RAFFINE   PACKAGE RCHA             ON UNIT   1014 AT TIME STEP      1, STRESS PERIOD      1

 HEAD WILL BE SAVED ON UNIT 1015 AT END OF TIME STEP    1, STRESS PERIOD    1


  VOLUME BUDGET FOR ENTIRE MODEL AT END OF TIME STEP    1, STRESS PERIOD   1
  ---------------------------------------------------------------------------------------------------

     CUMULATIVE VOLUME      L**3       RATES FOR THIS TIME STEP      L**3/T          PACKAGE NAME    
     ------------------                 ------------------------                     ----------------

           IN:                                      IN:
           ---                                      ---
                 WEL =           0.0000                   WEL =           0.0000     WEL             
                 RIV =           0.4703                   RIV =           0.4703     TET             
                 RCH =           3.1646                   RCH =           3.1646     RCHA            

            TOTAL IN =           3.6349              TOTAL IN =           3.6349

          OUT:                                     OUT:
          ----                                     ----
                 WEL =           0.5500                   WEL =           0.5500     WEL             
                 RIV =           3.0842                   RIV =           3.0842     TET             
                 RCH =           0.0000                   RCH =           0.0000     RCHA            

           TOTAL OUT =           3.6342             TOTAL OUT =           3.6342

            IN - OUT =       7.4820E-04              IN - OUT =       7.4820E-04

 PERCENT DISCREPANCY =           0.02     PERCENT DISCREPANCY =           0.02




         TIME SUMMARY AT END OF TIME STEP    1 IN STRESS PERIOD    1
                    SECONDS     MINUTES      HOURS       DAYS        YEARS
                    -----------------------------------------------------------
   TIME STEP LENGTH  1.0000     1.66667E-02 2.77778E-04 1.15741E-05 3.16881E-08
 STRESS PERIOD TIME  1.0000     1.66667E-02 2.77778E-04 1.15741E-05 3.16881E-08
         TOTAL TIME  1.0000     1.66667E-02 2.77778E-04 1.15741E-05 3.16881E-08
