Get the name of the MODPATH simulation file.
Read the first two records of the simulation file to get mpnamFile and mplistFile ...
Allocate rectangular unstructured grid component.
Allocate time discretization data component ...
Allocate disMf6Grid.
Read DIS binary grid file.
Read time discretization data component ...
 
 ----------------------------------------------------------
 Cell connection data:
 ----------------------------------------------------------
 Format has two lines for each cell, listed by cell number.
 Line 1: Cell connections
 Line 1: Face assignment codes
 ----------------------------------------------------------
        1       2      31     901
        0   20101   30101   50101
 
        2       1       3      32     902
        0   10101   20101   30101   50101
 
        3       2       4      33     903
        0   10101   20101   30101   50101
 
        4       3       5      34     904
        0   10101   20101   30101   50101
 
        5       4       6      35     905
        0   10101   20101   30101   50101
 
        6       5       7      36     906
        0   10101   20101   30101   50101
 
        7       6       8      37     907
        0   10101   20101   30101   50101
 
        8       7       9      38     908
        0   10101   20101   30101   50101
 
        9       8      10      39     909
        0   10101   20101   30101   50101
 
       10       9      11      40     910
        0   10101   20101   30101   50101
 
       11      10      12      41     911
        0   10101   20101   30101   50101
 
       12      11      13      42     912
        0   10101   20101   30101   50101
 
       13      12      14      43     913
        0   10101   20101   30101   50101
 
       14      13      15      44     914
        0   10101   20101   30101   50101
 
       15      14      16      45     915
        0   10101   20101   30101   50101
 
       16      15      17      46     916
        0   10101   20101   30101   50101
 
       17      16      18      47     917
        0   10101   20101   30101   50101
 
       18      17      19      48     918
        0   10101   20101   30101   50101
 
       19      18      20      49     919
        0   10101   20101   30101   50101
 
       20      19      21      50     920
        0   10101   20101   30101   50101
 
       21      20      22      51     921
        0   10101   20101   30101   50101
 
       22      21      23      52     922
        0   10101   20101   30101   50101
 
       23      22      24      53     923
        0   10101   20101   30101   50101
 
       24      23      25      54     924
        0   10101   20101   30101   50101
 
       25      24      26      55     925
        0   10101   20101   30101   50101
 
       26      25      27      56     926
        0   10101   20101   30101   50101
 
       27      26      28      57     927
        0   10101   20101   30101   50101
 
       28      27      29      58     928
        0   10101   20101   30101   50101
 
       29      28      30      59     929
        0   10101   20101   30101   50101
 
       30      29      60     930
        0   10101   30101   50101
 
       31       1      32      61     931
        0   40101   20101   30101   50101
 
       32       2      31      33      62     932
        0   40101   10101   20101   30101   50101
 
       33       3      32      34      63     933
        0   40101   10101   20101   30101   50101
 
       34       4      33      35      64     934
        0   40101   10101   20101   30101   50101
 
       35       5      34      36      65     935
        0   40101   10101   20101   30101   50101
 
       36       6      35      37      66     936
        0   40101   10101   20101   30101   50101
 
       37       7      36      38      67     937
        0   40101   10101   20101   30101   50101
 
       38       8      37      39      68     938
        0   40101   10101   20101   30101   50101
 
       39       9      38      40      69     939
        0   40101   10101   20101   30101   50101
 
       40      10      39      41      70     940
        0   40101   10101   20101   30101   50101
 
       41      11      40      42      71     941
        0   40101   10101   20101   30101   50101
 
       42      12      41      43      72     942
        0   40101   10101   20101   30101   50101
 
       43      13      42      44      73     943
        0   40101   10101   20101   30101   50101
 
       44      14      43      45      74     944
        0   40101   10101   20101   30101   50101
 
       45      15      44      46      75     945
        0   40101   10101   20101   30101   50101
 
       46      16      45      47      76     946
        0   40101   10101   20101   30101   50101
 
       47      17      46      48      77     947
        0   40101   10101   20101   30101   50101
 
       48      18      47      49      78     948
        0   40101   10101   20101   30101   50101
 
       49      19      48      50      79     949
        0   40101   10101   20101   30101   50101
 
       50      20      49      51      80     950
        0   40101   10101   20101   30101   50101
 
       51      21      50      52      81     951
        0   40101   10101   20101   30101   50101
 
       52      22      51      53      82     952
        0   40101   10101   20101   30101   50101
 
       53      23      52      54      83     953
        0   40101   10101   20101   30101   50101
 
       54      24      53      55      84     954
        0   40101   10101   20101   30101   50101
 
       55      25      54      56      85     955
        0   40101   10101   20101   30101   50101
 
       56      26      55      57      86     956
        0   40101   10101   20101   30101   50101
 
       57      27      56      58      87     957
        0   40101   10101   20101   30101   50101
 
       58      28      57      59      88     958
        0   40101   10101   20101   30101   50101
 
       59      29      58      60      89     959
        0   40101   10101   20101   30101   50101
 
       60      30      59      90     960
        0   40101   10101   30101   50101
 
       61      31      62      91     961
        0   40101   20101   30101   50101
 
       62      32      61      63      92     962
        0   40101   10101   20101   30101   50101
 
       63      33      62      64      93     963
        0   40101   10101   20101   30101   50101
 
       64      34      63      65      94     964
        0   40101   10101   20101   30101   50101
 
       65      35      64      66      95     965
        0   40101   10101   20101   30101   50101
 
       66      36      65      67      96     966
        0   40101   10101   20101   30101   50101
 
       67      37      66      68      97     967
        0   40101   10101   20101   30101   50101
 
       68      38      67      69      98     968
        0   40101   10101   20101   30101   50101
 
       69      39      68      70      99     969
        0   40101   10101   20101   30101   50101
 
       70      40      69      71     100     970
        0   40101   10101   20101   30101   50101
 
       71      41      70      72     101     971
        0   40101   10101   20101   30101   50101
 
       72      42      71      73     102     972
        0   40101   10101   20101   30101   50101
 
       73      43      72      74     103     973
        0   40101   10101   20101   30101   50101
 
       74      44      73      75     104     974
        0   40101   10101   20101   30101   50101
 
       75      45      74      76     105     975
        0   40101   10101   20101   30101   50101
 
       76      46      75      77     106     976
        0   40101   10101   20101   30101   50101
 
       77      47      76      78     107     977
        0   40101   10101   20101   30101   50101
 
       78      48      77      79     108     978
        0   40101   10101   20101   30101   50101
 
       79      49      78      80     109     979
        0   40101   10101   20101   30101   50101
 
       80      50      79      81     110     980
        0   40101   10101   20101   30101   50101
 
       81      51      80      82     111     981
        0   40101   10101   20101   30101   50101
 
       82      52      81      83     112     982
        0   40101   10101   20101   30101   50101
 
       83      53      82      84     113     983
        0   40101   10101   20101   30101   50101
 
       84      54      83      85     114     984
        0   40101   10101   20101   30101   50101
 
       85      55      84      86     115     985
        0   40101   10101   20101   30101   50101
 
       86      56      85      87     116     986
        0   40101   10101   20101   30101   50101
 
       87      57      86      88     117     987
        0   40101   10101   20101   30101   50101
 
       88      58      87      89     118     988
        0   40101   10101   20101   30101   50101
 
       89      59      88      90     119     989
        0   40101   10101   20101   30101   50101
 
       90      60      89     120     990
        0   40101   10101   30101   50101
 
       91      61      92     121     991
        0   40101   20101   30101   50101
 
       92      62      91      93     122     992
        0   40101   10101   20101   30101   50101
 
       93      63      92      94     123     993
        0   40101   10101   20101   30101   50101
 
       94      64      93      95     124     994
        0   40101   10101   20101   30101   50101
 
       95      65      94      96     125     995
        0   40101   10101   20101   30101   50101
 
       96      66      95      97     126     996
        0   40101   10101   20101   30101   50101
 
       97      67      96      98     127     997
        0   40101   10101   20101   30101   50101
 
       98      68      97      99     128     998
        0   40101   10101   20101   30101   50101
 
       99      69      98     100     129     999
        0   40101   10101   20101   30101   50101
 
      100      70      99     101     130    1000
        0   40101   10101   20101   30101   50101
 
      101      71     100     102     131    1001
        0   40101   10101   20101   30101   50101
 
      102      72     101     103     132    1002
        0   40101   10101   20101   30101   50101
 
      103      73     102     104     133    1003
        0   40101   10101   20101   30101   50101
 
      104      74     103     105     134    1004
        0   40101   10101   20101   30101   50101
 
      105      75     104     106     135    1005
        0   40101   10101   20101   30101   50101
 
      106      76     105     107     136    1006
        0   40101   10101   20101   30101   50101
 
      107      77     106     108     137    1007
        0   40101   10101   20101   30101   50101
 
      108      78     107     109     138    1008
        0   40101   10101   20101   30101   50101
 
      109      79     108     110     139    1009
        0   40101   10101   20101   30101   50101
 
      110      80     109     111     140    1010
        0   40101   10101   20101   30101   50101
 
      111      81     110     112     141    1011
        0   40101   10101   20101   30101   50101
 
      112      82     111     113     142    1012
        0   40101   10101   20101   30101   50101
 
      113      83     112     114     143    1013
        0   40101   10101   20101   30101   50101
 
      114      84     113     115     144    1014
        0   40101   10101   20101   30101   50101
 
      115      85     114     116     145    1015
        0   40101   10101   20101   30101   50101
 
      116      86     115     117     146    1016
        0   40101   10101   20101   30101   50101
 
      117      87     116     118     147    1017
        0   40101   10101   20101   30101   50101
 
      118      88     117     119     148    1018
        0   40101   10101   20101   30101   50101
 
      119      89     118     120     149    1019
        0   40101   10101   20101   30101   50101
 
      120      90     119     150    1020
        0   40101   10101   30101   50101
 
      121      91     122     151    1021
        0   40101   20101   30101   50101
 
      122      92     121     123     152    1022
        0   40101   10101   20101   30101   50101
 
      123      93     122     124     153    1023
        0   40101   10101   20101   30101   50101
 
      124      94     123     125     154    1024
        0   40101   10101   20101   30101   50101
 
      125      95     124     126     155    1025
        0   40101   10101   20101   30101   50101
 
      126      96     125     127     156    1026
        0   40101   10101   20101   30101   50101
 
      127      97     126     128     157    1027
        0   40101   10101   20101   30101   50101
 
      128      98     127     129     158    1028
        0   40101   10101   20101   30101   50101
 
      129      99     128     130     159    1029
        0   40101   10101   20101   30101   50101
 
      130     100     129     131     160    1030
        0   40101   10101   20101   30101   50101
 
      131     101     130     132     161    1031
        0   40101   10101   20101   30101   50101
 
      132     102     131     133     162    1032
        0   40101   10101   20101   30101   50101
 
      133     103     132     134     163    1033
        0   40101   10101   20101   30101   50101
 
      134     104     133     135     164    1034
        0   40101   10101   20101   30101   50101
 
      135     105     134     136     165    1035
        0   40101   10101   20101   30101   50101
 
      136     106     135     137     166    1036
        0   40101   10101   20101   30101   50101
 
      137     107     136     138     167    1037
        0   40101   10101   20101   30101   50101
 
      138     108     137     139     168    1038
        0   40101   10101   20101   30101   50101
 
      139     109     138     140     169    1039
        0   40101   10101   20101   30101   50101
 
      140     110     139     141     170    1040
        0   40101   10101   20101   30101   50101
 
      141     111     140     142     171    1041
        0   40101   10101   20101   30101   50101
 
      142     112     141     143     172    1042
        0   40101   10101   20101   30101   50101
 
      143     113     142     144     173    1043
        0   40101   10101   20101   30101   50101
 
      144     114     143     145     174    1044
        0   40101   10101   20101   30101   50101
 
      145     115     144     146     175    1045
        0   40101   10101   20101   30101   50101
 
      146     116     145     147     176    1046
        0   40101   10101   20101   30101   50101
 
      147     117     146     148     177    1047
        0   40101   10101   20101   30101   50101
 
      148     118     147     149     178    1048
        0   40101   10101   20101   30101   50101
 
      149     119     148     150     179    1049
        0   40101   10101   20101   30101   50101
 
      150     120     149     180    1050
        0   40101   10101   30101   50101
 
      151     121     152     181    1051
        0   40101   20101   30101   50101
 
      152     122     151     153     182    1052
        0   40101   10101   20101   30101   50101
 
      153     123     152     154     183    1053
        0   40101   10101   20101   30101   50101
 
      154     124     153     155     184    1054
        0   40101   10101   20101   30101   50101
 
      155     125     154     156     185    1055
        0   40101   10101   20101   30101   50101
 
      156     126     155     157     186    1056
        0   40101   10101   20101   30101   50101
 
      157     127     156     158     187    1057
        0   40101   10101   20101   30101   50101
 
      158     128     157     159     188    1058
        0   40101   10101   20101   30101   50101
 
      159     129     158     160     189    1059
        0   40101   10101   20101   30101   50101
 
      160     130     159     161     190    1060
        0   40101   10101   20101   30101   50101
 
      161     131     160     162     191    1061
        0   40101   10101   20101   30101   50101
 
      162     132     161     163     192    1062
        0   40101   10101   20101   30101   50101
 
      163     133     162     164     193    1063
        0   40101   10101   20101   30101   50101
 
      164     134     163     165     194    1064
        0   40101   10101   20101   30101   50101
 
      165     135     164     166     195    1065
        0   40101   10101   20101   30101   50101
 
      166     136     165     167     196    1066
        0   40101   10101   20101   30101   50101
 
      167     137     166     168     197    1067
        0   40101   10101   20101   30101   50101
 
      168     138     167     169     198    1068
        0   40101   10101   20101   30101   50101
 
      169     139     168     170     199    1069
        0   40101   10101   20101   30101   50101
 
      170     140     169     171     200    1070
        0   40101   10101   20101   30101   50101
 
      171     141     170     172     201    1071
        0   40101   10101   20101   30101   50101
 
      172     142     171     173     202    1072
        0   40101   10101   20101   30101   50101
 
      173     143     172     174     203    1073
        0   40101   10101   20101   30101   50101
 
      174     144     173     175     204    1074
        0   40101   10101   20101   30101   50101
 
      175     145     174     176     205    1075
        0   40101   10101   20101   30101   50101
 
      176     146     175     177     206    1076
        0   40101   10101   20101   30101   50101
 
      177     147     176     178     207    1077
        0   40101   10101   20101   30101   50101
 
      178     148     177     179     208    1078
        0   40101   10101   20101   30101   50101
 
      179     149     178     180     209    1079
        0   40101   10101   20101   30101   50101
 
      180     150     179     210    1080
        0   40101   10101   30101   50101
 
      181     151     182     211    1081
        0   40101   20101   30101   50101
 
      182     152     181     183     212    1082
        0   40101   10101   20101   30101   50101
 
      183     153     182     184     213    1083
        0   40101   10101   20101   30101   50101
 
      184     154     183     185     214    1084
        0   40101   10101   20101   30101   50101
 
      185     155     184     186     215    1085
        0   40101   10101   20101   30101   50101
 
      186     156     185     187     216    1086
        0   40101   10101   20101   30101   50101
 
      187     157     186     188     217    1087
        0   40101   10101   20101   30101   50101
 
      188     158     187     189     218    1088
        0   40101   10101   20101   30101   50101
 
      189     159     188     190     219    1089
        0   40101   10101   20101   30101   50101
 
      190     160     189     191     220    1090
        0   40101   10101   20101   30101   50101
 
      191     161     190     192     221    1091
        0   40101   10101   20101   30101   50101
 
      192     162     191     193     222    1092
        0   40101   10101   20101   30101   50101
 
      193     163     192     194     223    1093
        0   40101   10101   20101   30101   50101
 
      194     164     193     195     224    1094
        0   40101   10101   20101   30101   50101
 
      195     165     194     196     225    1095
        0   40101   10101   20101   30101   50101
 
      196     166     195     197     226    1096
        0   40101   10101   20101   30101   50101
 
      197     167     196     198     227    1097
        0   40101   10101   20101   30101   50101
 
      198     168     197     199     228    1098
        0   40101   10101   20101   30101   50101
 
      199     169     198     200     229    1099
        0   40101   10101   20101   30101   50101
 
      200     170     199     201     230    1100
        0   40101   10101   20101   30101   50101
 
      201     171     200     202     231    1101
        0   40101   10101   20101   30101   50101
 
      202     172     201     203     232    1102
        0   40101   10101   20101   30101   50101
 
      203     173     202     204     233    1103
        0   40101   10101   20101   30101   50101
 
      204     174     203     205     234    1104
        0   40101   10101   20101   30101   50101
 
      205     175     204     206     235    1105
        0   40101   10101   20101   30101   50101
 
      206     176     205     207     236    1106
        0   40101   10101   20101   30101   50101
 
      207     177     206     208     237    1107
        0   40101   10101   20101   30101   50101
 
      208     178     207     209     238    1108
        0   40101   10101   20101   30101   50101
 
      209     179     208     210     239    1109
        0   40101   10101   20101   30101   50101
 
      210     180     209     240    1110
        0   40101   10101   30101   50101
 
      211     181     212     241    1111
        0   40101   20101   30101   50101
 
      212     182     211     213     242    1112
        0   40101   10101   20101   30101   50101
 
      213     183     212     214     243    1113
        0   40101   10101   20101   30101   50101
 
      214     184     213     215     244    1114
        0   40101   10101   20101   30101   50101
 
      215     185     214     216     245    1115
        0   40101   10101   20101   30101   50101
 
      216     186     215     217     246    1116
        0   40101   10101   20101   30101   50101
 
      217     187     216     218     247    1117
        0   40101   10101   20101   30101   50101
 
      218     188     217     219     248    1118
        0   40101   10101   20101   30101   50101
 
      219     189     218     220     249    1119
        0   40101   10101   20101   30101   50101
 
      220     190     219     221     250    1120
        0   40101   10101   20101   30101   50101
 
      221     191     220     222     251    1121
        0   40101   10101   20101   30101   50101
 
      222     192     221     223     252    1122
        0   40101   10101   20101   30101   50101
 
      223     193     222     224     253    1123
        0   40101   10101   20101   30101   50101
 
      224     194     223     225     254    1124
        0   40101   10101   20101   30101   50101
 
      225     195     224     226     255    1125
        0   40101   10101   20101   30101   50101
 
      226     196     225     227     256    1126
        0   40101   10101   20101   30101   50101
 
      227     197     226     228     257    1127
        0   40101   10101   20101   30101   50101
 
      228     198     227     229     258    1128
        0   40101   10101   20101   30101   50101
 
      229     199     228     230     259    1129
        0   40101   10101   20101   30101   50101
 
      230     200     229     231     260    1130
        0   40101   10101   20101   30101   50101
 
      231     201     230     232     261    1131
        0   40101   10101   20101   30101   50101
 
      232     202     231     233     262    1132
        0   40101   10101   20101   30101   50101
 
      233     203     232     234     263    1133
        0   40101   10101   20101   30101   50101
 
      234     204     233     235     264    1134
        0   40101   10101   20101   30101   50101
 
      235     205     234     236     265    1135
        0   40101   10101   20101   30101   50101
 
      236     206     235     237     266    1136
        0   40101   10101   20101   30101   50101
 
      237     207     236     238     267    1137
        0   40101   10101   20101   30101   50101
 
      238     208     237     239     268    1138
        0   40101   10101   20101   30101   50101
 
      239     209     238     240     269    1139
        0   40101   10101   20101   30101   50101
 
      240     210     239     270    1140
        0   40101   10101   30101   50101
 
      241     211     242     271    1141
        0   40101   20101   30101   50101
 
      242     212     241     243     272    1142
        0   40101   10101   20101   30101   50101
 
      243     213     242     244     273    1143
        0   40101   10101   20101   30101   50101
 
      244     214     243     245     274    1144
        0   40101   10101   20101   30101   50101
 
      245     215     244     246     275    1145
        0   40101   10101   20101   30101   50101
 
      246     216     245     247     276    1146
        0   40101   10101   20101   30101   50101
 
      247     217     246     248     277    1147
        0   40101   10101   20101   30101   50101
 
      248     218     247     249     278    1148
        0   40101   10101   20101   30101   50101
 
      249     219     248     250     279    1149
        0   40101   10101   20101   30101   50101
 
      250     220     249     251     280    1150
        0   40101   10101   20101   30101   50101
 
      251     221     250     252     281    1151
        0   40101   10101   20101   30101   50101
 
      252     222     251     253     282    1152
        0   40101   10101   20101   30101   50101
 
      253     223     252     254     283    1153
        0   40101   10101   20101   30101   50101
 
      254     224     253     255     284    1154
        0   40101   10101   20101   30101   50101
 
      255     225     254     256     285    1155
        0   40101   10101   20101   30101   50101
 
      256     226     255     257     286    1156
        0   40101   10101   20101   30101   50101
 
      257     227     256     258     287    1157
        0   40101   10101   20101   30101   50101
 
      258     228     257     259     288    1158
        0   40101   10101   20101   30101   50101
 
      259     229     258     260     289    1159
        0   40101   10101   20101   30101   50101
 
      260     230     259     261     290    1160
        0   40101   10101   20101   30101   50101
 
      261     231     260     262     291    1161
        0   40101   10101   20101   30101   50101
 
      262     232     261     263     292    1162
        0   40101   10101   20101   30101   50101
 
      263     233     262     264     293    1163
        0   40101   10101   20101   30101   50101
 
      264     234     263     265     294    1164
        0   40101   10101   20101   30101   50101
 
      265     235     264     266     295    1165
        0   40101   10101   20101   30101   50101
 
      266     236     265     267     296    1166
        0   40101   10101   20101   30101   50101
 
      267     237     266     268     297    1167
        0   40101   10101   20101   30101   50101
 
      268     238     267     269     298    1168
        0   40101   10101   20101   30101   50101
 
      269     239     268     270     299    1169
        0   40101   10101   20101   30101   50101
 
      270     240     269     300    1170
        0   40101   10101   30101   50101
 
      271     241     272     301    1171
        0   40101   20101   30101   50101
 
      272     242     271     273     302    1172
        0   40101   10101   20101   30101   50101
 
      273     243     272     274     303    1173
        0   40101   10101   20101   30101   50101
 
      274     244     273     275     304    1174
        0   40101   10101   20101   30101   50101
 
      275     245     274     276     305    1175
        0   40101   10101   20101   30101   50101
 
      276     246     275     277     306    1176
        0   40101   10101   20101   30101   50101
 
      277     247     276     278     307    1177
        0   40101   10101   20101   30101   50101
 
      278     248     277     279     308    1178
        0   40101   10101   20101   30101   50101
 
      279     249     278     280     309    1179
        0   40101   10101   20101   30101   50101
 
      280     250     279     281     310    1180
        0   40101   10101   20101   30101   50101
 
      281     251     280     282     311    1181
        0   40101   10101   20101   30101   50101
 
      282     252     281     283     312    1182
        0   40101   10101   20101   30101   50101
 
      283     253     282     284     313    1183
        0   40101   10101   20101   30101   50101
 
      284     254     283     285     314    1184
        0   40101   10101   20101   30101   50101
 
      285     255     284     286     315    1185
        0   40101   10101   20101   30101   50101
 
      286     256     285     287     316    1186
        0   40101   10101   20101   30101   50101
 
      287     257     286     288     317    1187
        0   40101   10101   20101   30101   50101
 
      288     258     287     289     318    1188
        0   40101   10101   20101   30101   50101
 
      289     259     288     290     319    1189
        0   40101   10101   20101   30101   50101
 
      290     260     289     291     320    1190
        0   40101   10101   20101   30101   50101
 
      291     261     290     292     321    1191
        0   40101   10101   20101   30101   50101
 
      292     262     291     293     322    1192
        0   40101   10101   20101   30101   50101
 
      293     263     292     294     323    1193
        0   40101   10101   20101   30101   50101
 
      294     264     293     295     324    1194
        0   40101   10101   20101   30101   50101
 
      295     265     294     296     325    1195
        0   40101   10101   20101   30101   50101
 
      296     266     295     297     326    1196
        0   40101   10101   20101   30101   50101
 
      297     267     296     298     327    1197
        0   40101   10101   20101   30101   50101
 
      298     268     297     299     328    1198
        0   40101   10101   20101   30101   50101
 
      299     269     298     300     329    1199
        0   40101   10101   20101   30101   50101
 
      300     270     299     330    1200
        0   40101   10101   30101   50101
 
      301     271     302     331    1201
        0   40101   20101   30101   50101
 
      302     272     301     303     332    1202
        0   40101   10101   20101   30101   50101
 
      303     273     302     304     333    1203
        0   40101   10101   20101   30101   50101
 
      304     274     303     305     334    1204
        0   40101   10101   20101   30101   50101
 
      305     275     304     306     335    1205
        0   40101   10101   20101   30101   50101
 
      306     276     305     307     336    1206
        0   40101   10101   20101   30101   50101
 
      307     277     306     308     337    1207
        0   40101   10101   20101   30101   50101
 
      308     278     307     309     338    1208
        0   40101   10101   20101   30101   50101
 
      309     279     308     310     339    1209
        0   40101   10101   20101   30101   50101
 
      310     280     309     311     340    1210
        0   40101   10101   20101   30101   50101
 
      311     281     310     312     341    1211
        0   40101   10101   20101   30101   50101
 
      312     282     311     313     342    1212
        0   40101   10101   20101   30101   50101
 
      313     283     312     314     343    1213
        0   40101   10101   20101   30101   50101
 
      314     284     313     315     344    1214
        0   40101   10101   20101   30101   50101
 
      315     285     314     316     345    1215
        0   40101   10101   20101   30101   50101
 
      316     286     315     317     346    1216
        0   40101   10101   20101   30101   50101
 
      317     287     316     318     347    1217
        0   40101   10101   20101   30101   50101
 
      318     288     317     319     348    1218
        0   40101   10101   20101   30101   50101
 
      319     289     318     320     349    1219
        0   40101   10101   20101   30101   50101
 
      320     290     319     321     350    1220
        0   40101   10101   20101   30101   50101
 
      321     291     320     322     351    1221
        0   40101   10101   20101   30101   50101
 
      322     292     321     323     352    1222
        0   40101   10101   20101   30101   50101
 
      323     293     322     324     353    1223
        0   40101   10101   20101   30101   50101
 
      324     294     323     325     354    1224
        0   40101   10101   20101   30101   50101
 
      325     295     324     326     355    1225
        0   40101   10101   20101   30101   50101
 
      326     296     325     327     356    1226
        0   40101   10101   20101   30101   50101
 
      327     297     326     328     357    1227
        0   40101   10101   20101   30101   50101
 
      328     298     327     329     358    1228
        0   40101   10101   20101   30101   50101
 
      329     299     328     330     359    1229
        0   40101   10101   20101   30101   50101
 
      330     300     329     360    1230
        0   40101   10101   30101   50101
 
      331     301     332     361    1231
        0   40101   20101   30101   50101
 
      332     302     331     333     362    1232
        0   40101   10101   20101   30101   50101
 
      333     303     332     334     363    1233
        0   40101   10101   20101   30101   50101
 
      334     304     333     335     364    1234
        0   40101   10101   20101   30101   50101
 
      335     305     334     336     365    1235
        0   40101   10101   20101   30101   50101
 
      336     306     335     337     366    1236
        0   40101   10101   20101   30101   50101
 
      337     307     336     338     367    1237
        0   40101   10101   20101   30101   50101
 
      338     308     337     339     368    1238
        0   40101   10101   20101   30101   50101
 
      339     309     338     340     369    1239
        0   40101   10101   20101   30101   50101
 
      340     310     339     341     370    1240
        0   40101   10101   20101   30101   50101
 
      341     311     340     342     371    1241
        0   40101   10101   20101   30101   50101
 
      342     312     341     343     372    1242
        0   40101   10101   20101   30101   50101
 
      343     313     342     344     373    1243
        0   40101   10101   20101   30101   50101
 
      344     314     343     345     374    1244
        0   40101   10101   20101   30101   50101
 
      345     315     344     346     375    1245
        0   40101   10101   20101   30101   50101
 
      346     316     345     347     376    1246
        0   40101   10101   20101   30101   50101
 
      347     317     346     348     377    1247
        0   40101   10101   20101   30101   50101
 
      348     318     347     349     378    1248
        0   40101   10101   20101   30101   50101
 
      349     319     348     350     379    1249
        0   40101   10101   20101   30101   50101
 
      350     320     349     351     380    1250
        0   40101   10101   20101   30101   50101
 
      351     321     350     352     381    1251
        0   40101   10101   20101   30101   50101
 
      352     322     351     353     382    1252
        0   40101   10101   20101   30101   50101
 
      353     323     352     354     383    1253
        0   40101   10101   20101   30101   50101
 
      354     324     353     355     384    1254
        0   40101   10101   20101   30101   50101
 
      355     325     354     356     385    1255
        0   40101   10101   20101   30101   50101
 
      356     326     355     357     386    1256
        0   40101   10101   20101   30101   50101
 
      357     327     356     358     387    1257
        0   40101   10101   20101   30101   50101
 
      358     328     357     359     388    1258
        0   40101   10101   20101   30101   50101
 
      359     329     358     360     389    1259
        0   40101   10101   20101   30101   50101
 
      360     330     359     390    1260
        0   40101   10101   30101   50101
 
      361     331     362     391    1261
        0   40101   20101   30101   50101
 
      362     332     361     363     392    1262
        0   40101   10101   20101   30101   50101
 
      363     333     362     364     393    1263
        0   40101   10101   20101   30101   50101
 
      364     334     363     365     394    1264
        0   40101   10101   20101   30101   50101
 
      365     335     364     366     395    1265
        0   40101   10101   20101   30101   50101
 
      366     336     365     367     396    1266
        0   40101   10101   20101   30101   50101
 
      367     337     366     368     397    1267
        0   40101   10101   20101   30101   50101
 
      368     338     367     369     398    1268
        0   40101   10101   20101   30101   50101
 
      369     339     368     370     399    1269
        0   40101   10101   20101   30101   50101
 
      370     340     369     371     400    1270
        0   40101   10101   20101   30101   50101
 
      371     341     370     372     401    1271
        0   40101   10101   20101   30101   50101
 
      372     342     371     373     402    1272
        0   40101   10101   20101   30101   50101
 
      373     343     372     374     403    1273
        0   40101   10101   20101   30101   50101
 
      374     344     373     375     404    1274
        0   40101   10101   20101   30101   50101
 
      375     345     374     376     405    1275
        0   40101   10101   20101   30101   50101
 
      376     346     375     377     406    1276
        0   40101   10101   20101   30101   50101
 
      377     347     376     378     407    1277
        0   40101   10101   20101   30101   50101
 
      378     348     377     379     408    1278
        0   40101   10101   20101   30101   50101
 
      379     349     378     380     409    1279
        0   40101   10101   20101   30101   50101
 
      380     350     379     381     410    1280
        0   40101   10101   20101   30101   50101
 
      381     351     380     382     411    1281
        0   40101   10101   20101   30101   50101
 
      382     352     381     383     412    1282
        0   40101   10101   20101   30101   50101
 
      383     353     382     384     413    1283
        0   40101   10101   20101   30101   50101
 
      384     354     383     385     414    1284
        0   40101   10101   20101   30101   50101
 
      385     355     384     386     415    1285
        0   40101   10101   20101   30101   50101
 
      386     356     385     387     416    1286
        0   40101   10101   20101   30101   50101
 
      387     357     386     388     417    1287
        0   40101   10101   20101   30101   50101
 
      388     358     387     389     418    1288
        0   40101   10101   20101   30101   50101
 
      389     359     388     390     419    1289
        0   40101   10101   20101   30101   50101
 
      390     360     389     420    1290
        0   40101   10101   30101   50101
 
      391     361     392     421    1291
        0   40101   20101   30101   50101
 
      392     362     391     393     422    1292
        0   40101   10101   20101   30101   50101
 
      393     363     392     394     423    1293
        0   40101   10101   20101   30101   50101
 
      394     364     393     395     424    1294
        0   40101   10101   20101   30101   50101
 
      395     365     394     396     425    1295
        0   40101   10101   20101   30101   50101
 
      396     366     395     397     426    1296
        0   40101   10101   20101   30101   50101
 
      397     367     396     398     427    1297
        0   40101   10101   20101   30101   50101
 
      398     368     397     399     428    1298
        0   40101   10101   20101   30101   50101
 
      399     369     398     400     429    1299
        0   40101   10101   20101   30101   50101
 
      400     370     399     401     430    1300
        0   40101   10101   20101   30101   50101
 
      401     371     400     402     431    1301
        0   40101   10101   20101   30101   50101
 
      402     372     401     403     432    1302
        0   40101   10101   20101   30101   50101
 
      403     373     402     404     433    1303
        0   40101   10101   20101   30101   50101
 
      404     374     403     405     434    1304
        0   40101   10101   20101   30101   50101
 
      405     375     404     406     435    1305
        0   40101   10101   20101   30101   50101
 
      406     376     405     407     436    1306
        0   40101   10101   20101   30101   50101
 
      407     377     406     408     437    1307
        0   40101   10101   20101   30101   50101
 
      408     378     407     409     438    1308
        0   40101   10101   20101   30101   50101
 
      409     379     408     410     439    1309
        0   40101   10101   20101   30101   50101
 
      410     380     409     411     440    1310
        0   40101   10101   20101   30101   50101
 
      411     381     410     412     441    1311
        0   40101   10101   20101   30101   50101
 
      412     382     411     413     442    1312
        0   40101   10101   20101   30101   50101
 
      413     383     412     414     443    1313
        0   40101   10101   20101   30101   50101
 
      414     384     413     415     444    1314
        0   40101   10101   20101   30101   50101
 
      415     385     414     416     445    1315
        0   40101   10101   20101   30101   50101
 
      416     386     415     417     446    1316
        0   40101   10101   20101   30101   50101
 
      417     387     416     418     447    1317
        0   40101   10101   20101   30101   50101
 
      418     388     417     419     448    1318
        0   40101   10101   20101   30101   50101
 
      419     389     418     420     449    1319
        0   40101   10101   20101   30101   50101
 
      420     390     419     450    1320
        0   40101   10101   30101   50101
 
      421     391     422     451    1321
        0   40101   20101   30101   50101
 
      422     392     421     423     452    1322
        0   40101   10101   20101   30101   50101
 
      423     393     422     424     453    1323
        0   40101   10101   20101   30101   50101
 
      424     394     423     425     454    1324
        0   40101   10101   20101   30101   50101
 
      425     395     424     426     455    1325
        0   40101   10101   20101   30101   50101
 
      426     396     425     427     456    1326
        0   40101   10101   20101   30101   50101
 
      427     397     426     428     457    1327
        0   40101   10101   20101   30101   50101
 
      428     398     427     429     458    1328
        0   40101   10101   20101   30101   50101
 
      429     399     428     430     459    1329
        0   40101   10101   20101   30101   50101
 
      430     400     429     431     460    1330
        0   40101   10101   20101   30101   50101
 
      431     401     430     432     461    1331
        0   40101   10101   20101   30101   50101
 
      432     402     431     433     462    1332
        0   40101   10101   20101   30101   50101
 
      433     403     432     434     463    1333
        0   40101   10101   20101   30101   50101
 
      434     404     433     435     464    1334
        0   40101   10101   20101   30101   50101
 
      435     405     434     436     465    1335
        0   40101   10101   20101   30101   50101
 
      436     406     435     437     466    1336
        0   40101   10101   20101   30101   50101
 
      437     407     436     438     467    1337
        0   40101   10101   20101   30101   50101
 
      438     408     437     439     468    1338
        0   40101   10101   20101   30101   50101
 
      439     409     438     440     469    1339
        0   40101   10101   20101   30101   50101
 
      440     410     439     441     470    1340
        0   40101   10101   20101   30101   50101
 
      441     411     440     442     471    1341
        0   40101   10101   20101   30101   50101
 
      442     412     441     443     472    1342
        0   40101   10101   20101   30101   50101
 
      443     413     442     444     473    1343
        0   40101   10101   20101   30101   50101
 
      444     414     443     445     474    1344
        0   40101   10101   20101   30101   50101
 
      445     415     444     446     475    1345
        0   40101   10101   20101   30101   50101
 
      446     416     445     447     476    1346
        0   40101   10101   20101   30101   50101
 
      447     417     446     448     477    1347
        0   40101   10101   20101   30101   50101
 
      448     418     447     449     478    1348
        0   40101   10101   20101   30101   50101
 
      449     419     448     450     479    1349
        0   40101   10101   20101   30101   50101
 
      450     420     449     480    1350
        0   40101   10101   30101   50101
 
      451     421     452     481    1351
        0   40101   20101   30101   50101
 
      452     422     451     453     482    1352
        0   40101   10101   20101   30101   50101
 
      453     423     452     454     483    1353
        0   40101   10101   20101   30101   50101
 
      454     424     453     455     484    1354
        0   40101   10101   20101   30101   50101
 
      455     425     454     456     485    1355
        0   40101   10101   20101   30101   50101
 
      456     426     455     457     486    1356
        0   40101   10101   20101   30101   50101
 
      457     427     456     458     487    1357
        0   40101   10101   20101   30101   50101
 
      458     428     457     459     488    1358
        0   40101   10101   20101   30101   50101
 
      459     429     458     460     489    1359
        0   40101   10101   20101   30101   50101
 
      460     430     459     461     490    1360
        0   40101   10101   20101   30101   50101
 
      461     431     460     462     491    1361
        0   40101   10101   20101   30101   50101
 
      462     432     461     463     492    1362
        0   40101   10101   20101   30101   50101
 
      463     433     462     464     493    1363
        0   40101   10101   20101   30101   50101
 
      464     434     463     465     494    1364
        0   40101   10101   20101   30101   50101
 
      465     435     464     466     495    1365
        0   40101   10101   20101   30101   50101
 
      466     436     465     467     496    1366
        0   40101   10101   20101   30101   50101
 
      467     437     466     468     497    1367
        0   40101   10101   20101   30101   50101
 
      468     438     467     469     498    1368
        0   40101   10101   20101   30101   50101
 
      469     439     468     470     499    1369
        0   40101   10101   20101   30101   50101
 
      470     440     469     471     500    1370
        0   40101   10101   20101   30101   50101
 
      471     441     470     472     501    1371
        0   40101   10101   20101   30101   50101
 
      472     442     471     473     502    1372
        0   40101   10101   20101   30101   50101
 
      473     443     472     474     503    1373
        0   40101   10101   20101   30101   50101
 
      474     444     473     475     504    1374
        0   40101   10101   20101   30101   50101
 
      475     445     474     476     505    1375
        0   40101   10101   20101   30101   50101
 
      476     446     475     477     506    1376
        0   40101   10101   20101   30101   50101
 
      477     447     476     478     507    1377
        0   40101   10101   20101   30101   50101
 
      478     448     477     479     508    1378
        0   40101   10101   20101   30101   50101
 
      479     449     478     480     509    1379
        0   40101   10101   20101   30101   50101
 
      480     450     479     510    1380
        0   40101   10101   30101   50101
 
      481     451     482     511    1381
        0   40101   20101   30101   50101
 
      482     452     481     483     512    1382
        0   40101   10101   20101   30101   50101
 
      483     453     482     484     513    1383
        0   40101   10101   20101   30101   50101
 
      484     454     483     485     514    1384
        0   40101   10101   20101   30101   50101
 
      485     455     484     486     515    1385
        0   40101   10101   20101   30101   50101
 
      486     456     485     487     516    1386
        0   40101   10101   20101   30101   50101
 
      487     457     486     488     517    1387
        0   40101   10101   20101   30101   50101
 
      488     458     487     489     518    1388
        0   40101   10101   20101   30101   50101
 
      489     459     488     490     519    1389
        0   40101   10101   20101   30101   50101
 
      490     460     489     491     520    1390
        0   40101   10101   20101   30101   50101
 
      491     461     490     492     521    1391
        0   40101   10101   20101   30101   50101
 
      492     462     491     493     522    1392
        0   40101   10101   20101   30101   50101
 
      493     463     492     494     523    1393
        0   40101   10101   20101   30101   50101
 
      494     464     493     495     524    1394
        0   40101   10101   20101   30101   50101
 
      495     465     494     496     525    1395
        0   40101   10101   20101   30101   50101
 
      496     466     495     497     526    1396
        0   40101   10101   20101   30101   50101
 
      497     467     496     498     527    1397
        0   40101   10101   20101   30101   50101
 
      498     468     497     499     528    1398
        0   40101   10101   20101   30101   50101
 
      499     469     498     500     529    1399
        0   40101   10101   20101   30101   50101
 
      500     470     499     501     530    1400
        0   40101   10101   20101   30101   50101
 
      501     471     500     502     531    1401
        0   40101   10101   20101   30101   50101
 
      502     472     501     503     532    1402
        0   40101   10101   20101   30101   50101
 
      503     473     502     504     533    1403
        0   40101   10101   20101   30101   50101
 
      504     474     503     505     534    1404
        0   40101   10101   20101   30101   50101
 
      505     475     504     506     535    1405
        0   40101   10101   20101   30101   50101
 
      506     476     505     507     536    1406
        0   40101   10101   20101   30101   50101
 
      507     477     506     508     537    1407
        0   40101   10101   20101   30101   50101
 
      508     478     507     509     538    1408
        0   40101   10101   20101   30101   50101
 
      509     479     508     510     539    1409
        0   40101   10101   20101   30101   50101
 
      510     480     509     540    1410
        0   40101   10101   30101   50101
 
      511     481     512     541    1411
        0   40101   20101   30101   50101
 
      512     482     511     513     542    1412
        0   40101   10101   20101   30101   50101
 
      513     483     512     514     543    1413
        0   40101   10101   20101   30101   50101
 
      514     484     513     515     544    1414
        0   40101   10101   20101   30101   50101
 
      515     485     514     516     545    1415
        0   40101   10101   20101   30101   50101
 
      516     486     515     517     546    1416
        0   40101   10101   20101   30101   50101
 
      517     487     516     518     547    1417
        0   40101   10101   20101   30101   50101
 
      518     488     517     519     548    1418
        0   40101   10101   20101   30101   50101
 
      519     489     518     520     549    1419
        0   40101   10101   20101   30101   50101
 
      520     490     519     521     550    1420
        0   40101   10101   20101   30101   50101
 
      521     491     520     522     551    1421
        0   40101   10101   20101   30101   50101
 
      522     492     521     523     552    1422
        0   40101   10101   20101   30101   50101
 
      523     493     522     524     553    1423
        0   40101   10101   20101   30101   50101
 
      524     494     523     525     554    1424
        0   40101   10101   20101   30101   50101
 
      525     495     524     526     555    1425
        0   40101   10101   20101   30101   50101
 
      526     496     525     527     556    1426
        0   40101   10101   20101   30101   50101
 
      527     497     526     528     557    1427
        0   40101   10101   20101   30101   50101
 
      528     498     527     529     558    1428
        0   40101   10101   20101   30101   50101
 
      529     499     528     530     559    1429
        0   40101   10101   20101   30101   50101
 
      530     500     529     531     560    1430
        0   40101   10101   20101   30101   50101
 
      531     501     530     532     561    1431
        0   40101   10101   20101   30101   50101
 
      532     502     531     533     562    1432
        0   40101   10101   20101   30101   50101
 
      533     503     532     534     563    1433
        0   40101   10101   20101   30101   50101
 
      534     504     533     535     564    1434
        0   40101   10101   20101   30101   50101
 
      535     505     534     536     565    1435
        0   40101   10101   20101   30101   50101
 
      536     506     535     537     566    1436
        0   40101   10101   20101   30101   50101
 
      537     507     536     538     567    1437
        0   40101   10101   20101   30101   50101
 
      538     508     537     539     568    1438
        0   40101   10101   20101   30101   50101
 
      539     509     538     540     569    1439
        0   40101   10101   20101   30101   50101
 
      540     510     539     570    1440
        0   40101   10101   30101   50101
 
      541     511     542     571    1441
        0   40101   20101   30101   50101
 
      542     512     541     543     572    1442
        0   40101   10101   20101   30101   50101
 
      543     513     542     544     573    1443
        0   40101   10101   20101   30101   50101
 
      544     514     543     545     574    1444
        0   40101   10101   20101   30101   50101
 
      545     515     544     546     575    1445
        0   40101   10101   20101   30101   50101
 
      546     516     545     547     576    1446
        0   40101   10101   20101   30101   50101
 
      547     517     546     548     577    1447
        0   40101   10101   20101   30101   50101
 
      548     518     547     549     578    1448
        0   40101   10101   20101   30101   50101
 
      549     519     548     550     579    1449
        0   40101   10101   20101   30101   50101
 
      550     520     549     551     580    1450
        0   40101   10101   20101   30101   50101
 
      551     521     550     552     581    1451
        0   40101   10101   20101   30101   50101
 
      552     522     551     553     582    1452
        0   40101   10101   20101   30101   50101
 
      553     523     552     554     583    1453
        0   40101   10101   20101   30101   50101
 
      554     524     553     555     584    1454
        0   40101   10101   20101   30101   50101
 
      555     525     554     556     585    1455
        0   40101   10101   20101   30101   50101
 
      556     526     555     557     586    1456
        0   40101   10101   20101   30101   50101
 
      557     527     556     558     587    1457
        0   40101   10101   20101   30101   50101
 
      558     528     557     559     588    1458
        0   40101   10101   20101   30101   50101
 
      559     529     558     560     589    1459
        0   40101   10101   20101   30101   50101
 
      560     530     559     561     590    1460
        0   40101   10101   20101   30101   50101
 
      561     531     560     562     591    1461
        0   40101   10101   20101   30101   50101
 
      562     532     561     563     592    1462
        0   40101   10101   20101   30101   50101
 
      563     533     562     564     593    1463
        0   40101   10101   20101   30101   50101
 
      564     534     563     565     594    1464
        0   40101   10101   20101   30101   50101
 
      565     535     564     566     595    1465
        0   40101   10101   20101   30101   50101
 
      566     536     565     567     596    1466
        0   40101   10101   20101   30101   50101
 
      567     537     566     568     597    1467
        0   40101   10101   20101   30101   50101
 
      568     538     567     569     598    1468
        0   40101   10101   20101   30101   50101
 
      569     539     568     570     599    1469
        0   40101   10101   20101   30101   50101
 
      570     540     569     600    1470
        0   40101   10101   30101   50101
 
      571     541     572     601    1471
        0   40101   20101   30101   50101
 
      572     542     571     573     602    1472
        0   40101   10101   20101   30101   50101
 
      573     543     572     574     603    1473
        0   40101   10101   20101   30101   50101
 
      574     544     573     575     604    1474
        0   40101   10101   20101   30101   50101
 
      575     545     574     576     605    1475
        0   40101   10101   20101   30101   50101
 
      576     546     575     577     606    1476
        0   40101   10101   20101   30101   50101
 
      577     547     576     578     607    1477
        0   40101   10101   20101   30101   50101
 
      578     548     577     579     608    1478
        0   40101   10101   20101   30101   50101
 
      579     549     578     580     609    1479
        0   40101   10101   20101   30101   50101
 
      580     550     579     581     610    1480
        0   40101   10101   20101   30101   50101
 
      581     551     580     582     611    1481
        0   40101   10101   20101   30101   50101
 
      582     552     581     583     612    1482
        0   40101   10101   20101   30101   50101
 
      583     553     582     584     613    1483
        0   40101   10101   20101   30101   50101
 
      584     554     583     585     614    1484
        0   40101   10101   20101   30101   50101
 
      585     555     584     586     615    1485
        0   40101   10101   20101   30101   50101
 
      586     556     585     587     616    1486
        0   40101   10101   20101   30101   50101
 
      587     557     586     588     617    1487
        0   40101   10101   20101   30101   50101
 
      588     558     587     589     618    1488
        0   40101   10101   20101   30101   50101
 
      589     559     588     590     619    1489
        0   40101   10101   20101   30101   50101
 
      590     560     589     591     620    1490
        0   40101   10101   20101   30101   50101
 
      591     561     590     592     621    1491
        0   40101   10101   20101   30101   50101
 
      592     562     591     593     622    1492
        0   40101   10101   20101   30101   50101
 
      593     563     592     594     623    1493
        0   40101   10101   20101   30101   50101
 
      594     564     593     595     624    1494
        0   40101   10101   20101   30101   50101
 
      595     565     594     596     625    1495
        0   40101   10101   20101   30101   50101
 
      596     566     595     597     626    1496
        0   40101   10101   20101   30101   50101
 
      597     567     596     598     627    1497
        0   40101   10101   20101   30101   50101
 
      598     568     597     599     628    1498
        0   40101   10101   20101   30101   50101
 
      599     569     598     600     629    1499
        0   40101   10101   20101   30101   50101
 
      600     570     599     630    1500
        0   40101   10101   30101   50101
 
      601     571     602     631    1501
        0   40101   20101   30101   50101
 
      602     572     601     603     632    1502
        0   40101   10101   20101   30101   50101
 
      603     573     602     604     633    1503
        0   40101   10101   20101   30101   50101
 
      604     574     603     605     634    1504
        0   40101   10101   20101   30101   50101
 
      605     575     604     606     635    1505
        0   40101   10101   20101   30101   50101
 
      606     576     605     607     636    1506
        0   40101   10101   20101   30101   50101
 
      607     577     606     608     637    1507
        0   40101   10101   20101   30101   50101
 
      608     578     607     609     638    1508
        0   40101   10101   20101   30101   50101
 
      609     579     608     610     639    1509
        0   40101   10101   20101   30101   50101
 
      610     580     609     611     640    1510
        0   40101   10101   20101   30101   50101
 
      611     581     610     612     641    1511
        0   40101   10101   20101   30101   50101
 
      612     582     611     613     642    1512
        0   40101   10101   20101   30101   50101
 
      613     583     612     614     643    1513
        0   40101   10101   20101   30101   50101
 
      614     584     613     615     644    1514
        0   40101   10101   20101   30101   50101
 
      615     585     614     616     645    1515
        0   40101   10101   20101   30101   50101
 
      616     586     615     617     646    1516
        0   40101   10101   20101   30101   50101
 
      617     587     616     618     647    1517
        0   40101   10101   20101   30101   50101
 
      618     588     617     619     648    1518
        0   40101   10101   20101   30101   50101
 
      619     589     618     620     649    1519
        0   40101   10101   20101   30101   50101
 
      620     590     619     621     650    1520
        0   40101   10101   20101   30101   50101
 
      621     591     620     622     651    1521
        0   40101   10101   20101   30101   50101
 
      622     592     621     623     652    1522
        0   40101   10101   20101   30101   50101
 
      623     593     622     624     653    1523
        0   40101   10101   20101   30101   50101
 
      624     594     623     625     654    1524
        0   40101   10101   20101   30101   50101
 
      625     595     624     626     655    1525
        0   40101   10101   20101   30101   50101
 
      626     596     625     627     656    1526
        0   40101   10101   20101   30101   50101
 
      627     597     626     628     657    1527
        0   40101   10101   20101   30101   50101
 
      628     598     627     629     658    1528
        0   40101   10101   20101   30101   50101
 
      629     599     628     630     659    1529
        0   40101   10101   20101   30101   50101
 
      630     600     629     660    1530
        0   40101   10101   30101   50101
 
      631     601     632     661    1531
        0   40101   20101   30101   50101
 
      632     602     631     633     662    1532
        0   40101   10101   20101   30101   50101
 
      633     603     632     634     663    1533
        0   40101   10101   20101   30101   50101
 
      634     604     633     635     664    1534
        0   40101   10101   20101   30101   50101
 
      635     605     634     636     665    1535
        0   40101   10101   20101   30101   50101
 
      636     606     635     637     666    1536
        0   40101   10101   20101   30101   50101
 
      637     607     636     638     667    1537
        0   40101   10101   20101   30101   50101
 
      638     608     637     639     668    1538
        0   40101   10101   20101   30101   50101
 
      639     609     638     640     669    1539
        0   40101   10101   20101   30101   50101
 
      640     610     639     641     670    1540
        0   40101   10101   20101   30101   50101
 
      641     611     640     642     671    1541
        0   40101   10101   20101   30101   50101
 
      642     612     641     643     672    1542
        0   40101   10101   20101   30101   50101
 
      643     613     642     644     673    1543
        0   40101   10101   20101   30101   50101
 
      644     614     643     645     674    1544
        0   40101   10101   20101   30101   50101
 
      645     615     644     646     675    1545
        0   40101   10101   20101   30101   50101
 
      646     616     645     647     676    1546
        0   40101   10101   20101   30101   50101
 
      647     617     646     648     677    1547
        0   40101   10101   20101   30101   50101
 
      648     618     647     649     678    1548
        0   40101   10101   20101   30101   50101
 
      649     619     648     650     679    1549
        0   40101   10101   20101   30101   50101
 
      650     620     649     651     680    1550
        0   40101   10101   20101   30101   50101
 
      651     621     650     652     681    1551
        0   40101   10101   20101   30101   50101
 
      652     622     651     653     682    1552
        0   40101   10101   20101   30101   50101
 
      653     623     652     654     683    1553
        0   40101   10101   20101   30101   50101
 
      654     624     653     655     684    1554
        0   40101   10101   20101   30101   50101
 
      655     625     654     656     685    1555
        0   40101   10101   20101   30101   50101
 
      656     626     655     657     686    1556
        0   40101   10101   20101   30101   50101
 
      657     627     656     658     687    1557
        0   40101   10101   20101   30101   50101
 
      658     628     657     659     688    1558
        0   40101   10101   20101   30101   50101
 
      659     629     658     660     689    1559
        0   40101   10101   20101   30101   50101
 
      660     630     659     690    1560
        0   40101   10101   30101   50101
 
      661     631     662     691    1561
        0   40101   20101   30101   50101
 
      662     632     661     663     692    1562
        0   40101   10101   20101   30101   50101
 
      663     633     662     664     693    1563
        0   40101   10101   20101   30101   50101
 
      664     634     663     665     694    1564
        0   40101   10101   20101   30101   50101
 
      665     635     664     666     695    1565
        0   40101   10101   20101   30101   50101
 
      666     636     665     667     696    1566
        0   40101   10101   20101   30101   50101
 
      667     637     666     668     697    1567
        0   40101   10101   20101   30101   50101
 
      668     638     667     669     698    1568
        0   40101   10101   20101   30101   50101
 
      669     639     668     670     699    1569
        0   40101   10101   20101   30101   50101
 
      670     640     669     671     700    1570
        0   40101   10101   20101   30101   50101
 
      671     641     670     672     701    1571
        0   40101   10101   20101   30101   50101
 
      672     642     671     673     702    1572
        0   40101   10101   20101   30101   50101
 
      673     643     672     674     703    1573
        0   40101   10101   20101   30101   50101
 
      674     644     673     675     704    1574
        0   40101   10101   20101   30101   50101
 
      675     645     674     676     705    1575
        0   40101   10101   20101   30101   50101
 
      676     646     675     677     706    1576
        0   40101   10101   20101   30101   50101
 
      677     647     676     678     707    1577
        0   40101   10101   20101   30101   50101
 
      678     648     677     679     708    1578
        0   40101   10101   20101   30101   50101
 
      679     649     678     680     709    1579
        0   40101   10101   20101   30101   50101
 
      680     650     679     681     710    1580
        0   40101   10101   20101   30101   50101
 
      681     651     680     682     711    1581
        0   40101   10101   20101   30101   50101
 
      682     652     681     683     712    1582
        0   40101   10101   20101   30101   50101
 
      683     653     682     684     713    1583
        0   40101   10101   20101   30101   50101
 
      684     654     683     685     714    1584
        0   40101   10101   20101   30101   50101
 
      685     655     684     686     715    1585
        0   40101   10101   20101   30101   50101
 
      686     656     685     687     716    1586
        0   40101   10101   20101   30101   50101
 
      687     657     686     688     717    1587
        0   40101   10101   20101   30101   50101
 
      688     658     687     689     718    1588
        0   40101   10101   20101   30101   50101
 
      689     659     688     690     719    1589
        0   40101   10101   20101   30101   50101
 
      690     660     689     720    1590
        0   40101   10101   30101   50101
 
      691     661     692     721    1591
        0   40101   20101   30101   50101
 
      692     662     691     693     722    1592
        0   40101   10101   20101   30101   50101
 
      693     663     692     694     723    1593
        0   40101   10101   20101   30101   50101
 
      694     664     693     695     724    1594
        0   40101   10101   20101   30101   50101
 
      695     665     694     696     725    1595
        0   40101   10101   20101   30101   50101
 
      696     666     695     697     726    1596
        0   40101   10101   20101   30101   50101
 
      697     667     696     698     727    1597
        0   40101   10101   20101   30101   50101
 
      698     668     697     699     728    1598
        0   40101   10101   20101   30101   50101
 
      699     669     698     700     729    1599
        0   40101   10101   20101   30101   50101
 
      700     670     699     701     730    1600
        0   40101   10101   20101   30101   50101
 
      701     671     700     702     731    1601
        0   40101   10101   20101   30101   50101
 
      702     672     701     703     732    1602
        0   40101   10101   20101   30101   50101
 
      703     673     702     704     733    1603
        0   40101   10101   20101   30101   50101
 
      704     674     703     705     734    1604
        0   40101   10101   20101   30101   50101
 
      705     675     704     706     735    1605
        0   40101   10101   20101   30101   50101
 
      706     676     705     707     736    1606
        0   40101   10101   20101   30101   50101
 
      707     677     706     708     737    1607
        0   40101   10101   20101   30101   50101
 
      708     678     707     709     738    1608
        0   40101   10101   20101   30101   50101
 
      709     679     708     710     739    1609
        0   40101   10101   20101   30101   50101
 
      710     680     709     711     740    1610
        0   40101   10101   20101   30101   50101
 
      711     681     710     712     741    1611
        0   40101   10101   20101   30101   50101
 
      712     682     711     713     742    1612
        0   40101   10101   20101   30101   50101
 
      713     683     712     714     743    1613
        0   40101   10101   20101   30101   50101
 
      714     684     713     715     744    1614
        0   40101   10101   20101   30101   50101
 
      715     685     714     716     745    1615
        0   40101   10101   20101   30101   50101
 
      716     686     715     717     746    1616
        0   40101   10101   20101   30101   50101
 
      717     687     716     718     747    1617
        0   40101   10101   20101   30101   50101
 
      718     688     717     719     748    1618
        0   40101   10101   20101   30101   50101
 
      719     689     718     720     749    1619
        0   40101   10101   20101   30101   50101
 
      720     690     719     750    1620
        0   40101   10101   30101   50101
 
      721     691     722     751    1621
        0   40101   20101   30101   50101
 
      722     692     721     723     752    1622
        0   40101   10101   20101   30101   50101
 
      723     693     722     724     753    1623
        0   40101   10101   20101   30101   50101
 
      724     694     723     725     754    1624
        0   40101   10101   20101   30101   50101
 
      725     695     724     726     755    1625
        0   40101   10101   20101   30101   50101
 
      726     696     725     727     756    1626
        0   40101   10101   20101   30101   50101
 
      727     697     726     728     757    1627
        0   40101   10101   20101   30101   50101
 
      728     698     727     729     758    1628
        0   40101   10101   20101   30101   50101
 
      729     699     728     730     759    1629
        0   40101   10101   20101   30101   50101
 
      730     700     729     731     760    1630
        0   40101   10101   20101   30101   50101
 
      731     701     730     732     761    1631
        0   40101   10101   20101   30101   50101
 
      732     702     731     733     762    1632
        0   40101   10101   20101   30101   50101
 
      733     703     732     734     763    1633
        0   40101   10101   20101   30101   50101
 
      734     704     733     735     764    1634
        0   40101   10101   20101   30101   50101
 
      735     705     734     736     765    1635
        0   40101   10101   20101   30101   50101
 
      736     706     735     737     766    1636
        0   40101   10101   20101   30101   50101
 
      737     707     736     738     767    1637
        0   40101   10101   20101   30101   50101
 
      738     708     737     739     768    1638
        0   40101   10101   20101   30101   50101
 
      739     709     738     740     769    1639
        0   40101   10101   20101   30101   50101
 
      740     710     739     741     770    1640
        0   40101   10101   20101   30101   50101
 
      741     711     740     742     771    1641
        0   40101   10101   20101   30101   50101
 
      742     712     741     743     772    1642
        0   40101   10101   20101   30101   50101
 
      743     713     742     744     773    1643
        0   40101   10101   20101   30101   50101
 
      744     714     743     745     774    1644
        0   40101   10101   20101   30101   50101
 
      745     715     744     746     775    1645
        0   40101   10101   20101   30101   50101
 
      746     716     745     747     776    1646
        0   40101   10101   20101   30101   50101
 
      747     717     746     748     777    1647
        0   40101   10101   20101   30101   50101
 
      748     718     747     749     778    1648
        0   40101   10101   20101   30101   50101
 
      749     719     748     750     779    1649
        0   40101   10101   20101   30101   50101
 
      750     720     749     780    1650
        0   40101   10101   30101   50101
 
      751     721     752     781    1651
        0   40101   20101   30101   50101
 
      752     722     751     753     782    1652
        0   40101   10101   20101   30101   50101
 
      753     723     752     754     783    1653
        0   40101   10101   20101   30101   50101
 
      754     724     753     755     784    1654
        0   40101   10101   20101   30101   50101
 
      755     725     754     756     785    1655
        0   40101   10101   20101   30101   50101
 
      756     726     755     757     786    1656
        0   40101   10101   20101   30101   50101
 
      757     727     756     758     787    1657
        0   40101   10101   20101   30101   50101
 
      758     728     757     759     788    1658
        0   40101   10101   20101   30101   50101
 
      759     729     758     760     789    1659
        0   40101   10101   20101   30101   50101
 
      760     730     759     761     790    1660
        0   40101   10101   20101   30101   50101
 
      761     731     760     762     791    1661
        0   40101   10101   20101   30101   50101
 
      762     732     761     763     792    1662
        0   40101   10101   20101   30101   50101
 
      763     733     762     764     793    1663
        0   40101   10101   20101   30101   50101
 
      764     734     763     765     794    1664
        0   40101   10101   20101   30101   50101
 
      765     735     764     766     795    1665
        0   40101   10101   20101   30101   50101
 
      766     736     765     767     796    1666
        0   40101   10101   20101   30101   50101
 
      767     737     766     768     797    1667
        0   40101   10101   20101   30101   50101
 
      768     738     767     769     798    1668
        0   40101   10101   20101   30101   50101
 
      769     739     768     770     799    1669
        0   40101   10101   20101   30101   50101
 
      770     740     769     771     800    1670
        0   40101   10101   20101   30101   50101
 
      771     741     770     772     801    1671
        0   40101   10101   20101   30101   50101
 
      772     742     771     773     802    1672
        0   40101   10101   20101   30101   50101
 
      773     743     772     774     803    1673
        0   40101   10101   20101   30101   50101
 
      774     744     773     775     804    1674
        0   40101   10101   20101   30101   50101
 
      775     745     774     776     805    1675
        0   40101   10101   20101   30101   50101
 
      776     746     775     777     806    1676
        0   40101   10101   20101   30101   50101
 
      777     747     776     778     807    1677
        0   40101   10101   20101   30101   50101
 
      778     748     777     779     808    1678
        0   40101   10101   20101   30101   50101
 
      779     749     778     780     809    1679
        0   40101   10101   20101   30101   50101
 
      780     750     779     810    1680
        0   40101   10101   30101   50101
 
      781     751     782     811    1681
        0   40101   20101   30101   50101
 
      782     752     781     783     812    1682
        0   40101   10101   20101   30101   50101
 
      783     753     782     784     813    1683
        0   40101   10101   20101   30101   50101
 
      784     754     783     785     814    1684
        0   40101   10101   20101   30101   50101
 
      785     755     784     786     815    1685
        0   40101   10101   20101   30101   50101
 
      786     756     785     787     816    1686
        0   40101   10101   20101   30101   50101
 
      787     757     786     788     817    1687
        0   40101   10101   20101   30101   50101
 
      788     758     787     789     818    1688
        0   40101   10101   20101   30101   50101
 
      789     759     788     790     819    1689
        0   40101   10101   20101   30101   50101
 
      790     760     789     791     820    1690
        0   40101   10101   20101   30101   50101
 
      791     761     790     792     821    1691
        0   40101   10101   20101   30101   50101
 
[...]
     2506    1606    2476    2505    2507    2536
        0   60101   40101   10101   20101   30101
 
     2507    1607    2477    2506    2508    2537
        0   60101   40101   10101   20101   30101
 
     2508    1608    2478    2507    2509    2538
        0   60101   40101   10101   20101   30101
 
     2509    1609    2479    2508    2510    2539
        0   60101   40101   10101   20101   30101
 
     2510    1610    2480    2509    2511    2540
        0   60101   40101   10101   20101   30101
 
     2511    1611    2481    2510    2512    2541
        0   60101   40101   10101   20101   30101
 
     2512    1612    2482    2511    2513    2542
        0   60101   40101   10101   20101   30101
 
     2513    1613    2483    2512    2514    2543
        0   60101   40101   10101   20101   30101
 
     2514    1614    2484    2513    2515    2544
        0   60101   40101   10101   20101   30101
 
     2515    1615    2485    2514    2516    2545
        0   60101   40101   10101   20101   30101
 
     2516    1616    2486    2515    2517    2546
        0   60101   40101   10101   20101   30101
 
     2517    1617    2487    2516    2518    2547
        0   60101   40101   10101   20101   30101
 
     2518    1618    2488    2517    2519    2548
        0   60101   40101   10101   20101   30101
 
     2519    1619    2489    2518    2520    2549
        0   60101   40101   10101   20101   30101
 
     2520    1620    2490    2519    2550
        0   60101   40101   10101   30101
 
     2521    1621    2491    2522    2551
        0   60101   40101   20101   30101
 
     2522    1622    2492    2521    2523    2552
        0   60101   40101   10101   20101   30101
 
     2523    1623    2493    2522    2524    2553
        0   60101   40101   10101   20101   30101
 
     2524    1624    2494    2523    2525    2554
        0   60101   40101   10101   20101   30101
 
     2525    1625    2495    2524    2526    2555
        0   60101   40101   10101   20101   30101
 
     2526    1626    2496    2525    2527    2556
        0   60101   40101   10101   20101   30101
 
     2527    1627    2497    2526    2528    2557
        0   60101   40101   10101   20101   30101
 
     2528    1628    2498    2527    2529    2558
        0   60101   40101   10101   20101   30101
 
     2529    1629    2499    2528    2530    2559
        0   60101   40101   10101   20101   30101
 
     2530    1630    2500    2529    2531    2560
        0   60101   40101   10101   20101   30101
 
     2531    1631    2501    2530    2532    2561
        0   60101   40101   10101   20101   30101
 
     2532    1632    2502    2531    2533    2562
        0   60101   40101   10101   20101   30101
 
     2533    1633    2503    2532    2534    2563
        0   60101   40101   10101   20101   30101
 
     2534    1634    2504    2533    2535    2564
        0   60101   40101   10101   20101   30101
 
     2535    1635    2505    2534    2536    2565
        0   60101   40101   10101   20101   30101
 
     2536    1636    2506    2535    2537    2566
        0   60101   40101   10101   20101   30101
 
     2537    1637    2507    2536    2538    2567
        0   60101   40101   10101   20101   30101
 
     2538    1638    2508    2537    2539    2568
        0   60101   40101   10101   20101   30101
 
     2539    1639    2509    2538    2540    2569
        0   60101   40101   10101   20101   30101
 
     2540    1640    2510    2539    2541    2570
        0   60101   40101   10101   20101   30101
 
     2541    1641    2511    2540    2542    2571
        0   60101   40101   10101   20101   30101
 
     2542    1642    2512    2541    2543    2572
        0   60101   40101   10101   20101   30101
 
     2543    1643    2513    2542    2544    2573
        0   60101   40101   10101   20101   30101
 
     2544    1644    2514    2543    2545    2574
        0   60101   40101   10101   20101   30101
 
     2545    1645    2515    2544    2546    2575
        0   60101   40101   10101   20101   30101
 
     2546    1646    2516    2545    2547    2576
        0   60101   40101   10101   20101   30101
 
     2547    1647    2517    2546    2548    2577
        0   60101   40101   10101   20101   30101
 
     2548    1648    2518    2547    2549    2578
        0   60101   40101   10101   20101   30101
 
     2549    1649    2519    2548    2550    2579
        0   60101   40101   10101   20101   30101
 
     2550    1650    2520    2549    2580
        0   60101   40101   10101   30101
 
     2551    1651    2521    2552    2581
        0   60101   40101   20101   30101
 
     2552    1652    2522    2551    2553    2582
        0   60101   40101   10101   20101   30101
 
     2553    1653    2523    2552    2554    2583
        0   60101   40101   10101   20101   30101
 
     2554    1654    2524    2553    2555    2584
        0   60101   40101   10101   20101   30101
 
     2555    1655    2525    2554    2556    2585
        0   60101   40101   10101   20101   30101
 
     2556    1656    2526    2555    2557    2586
        0   60101   40101   10101   20101   30101
 
     2557    1657    2527    2556    2558    2587
        0   60101   40101   10101   20101   30101
 
     2558    1658    2528    2557    2559    2588
        0   60101   40101   10101   20101   30101
 
     2559    1659    2529    2558    2560    2589
        0   60101   40101   10101   20101   30101
 
     2560    1660    2530    2559    2561    2590
        0   60101   40101   10101   20101   30101
 
     2561    1661    2531    2560    2562    2591
        0   60101   40101   10101   20101   30101
 
     2562    1662    2532    2561    2563    2592
        0   60101   40101   10101   20101   30101
 
     2563    1663    2533    2562    2564    2593
        0   60101   40101   10101   20101   30101
 
     2564    1664    2534    2563    2565    2594
        0   60101   40101   10101   20101   30101
 
     2565    1665    2535    2564    2566    2595
        0   60101   40101   10101   20101   30101
 
     2566    1666    2536    2565    2567    2596
        0   60101   40101   10101   20101   30101
 
     2567    1667    2537    2566    2568    2597
        0   60101   40101   10101   20101   30101
 
     2568    1668    2538    2567    2569    2598
        0   60101   40101   10101   20101   30101
 
     2569    1669    2539    2568    2570    2599
        0   60101   40101   10101   20101   30101
 
     2570    1670    2540    2569    2571    2600
        0   60101   40101   10101   20101   30101
 
     2571    1671    2541    2570    2572    2601
        0   60101   40101   10101   20101   30101
 
     2572    1672    2542    2571    2573    2602
        0   60101   40101   10101   20101   30101
 
     2573    1673    2543    2572    2574    2603
        0   60101   40101   10101   20101   30101
 
     2574    1674    2544    2573    2575    2604
        0   60101   40101   10101   20101   30101
 
     2575    1675    2545    2574    2576    2605
        0   60101   40101   10101   20101   30101
 
     2576    1676    2546    2575    2577    2606
        0   60101   40101   10101   20101   30101
 
     2577    1677    2547    2576    2578    2607
        0   60101   40101   10101   20101   30101
 
     2578    1678    2548    2577    2579    2608
        0   60101   40101   10101   20101   30101
 
     2579    1679    2549    2578    2580    2609
        0   60101   40101   10101   20101   30101
 
     2580    1680    2550    2579    2610
        0   60101   40101   10101   30101
 
     2581    1681    2551    2582    2611
        0   60101   40101   20101   30101
 
     2582    1682    2552    2581    2583    2612
        0   60101   40101   10101   20101   30101
 
     2583    1683    2553    2582    2584    2613
        0   60101   40101   10101   20101   30101
 
     2584    1684    2554    2583    2585    2614
        0   60101   40101   10101   20101   30101
 
     2585    1685    2555    2584    2586    2615
        0   60101   40101   10101   20101   30101
 
     2586    1686    2556    2585    2587    2616
        0   60101   40101   10101   20101   30101
 
     2587    1687    2557    2586    2588    2617
        0   60101   40101   10101   20101   30101
 
     2588    1688    2558    2587    2589    2618
        0   60101   40101   10101   20101   30101
 
     2589    1689    2559    2588    2590    2619
        0   60101   40101   10101   20101   30101
 
     2590    1690    2560    2589    2591    2620
        0   60101   40101   10101   20101   30101
 
     2591    1691    2561    2590    2592    2621
        0   60101   40101   10101   20101   30101
 
     2592    1692    2562    2591    2593    2622
        0   60101   40101   10101   20101   30101
 
     2593    1693    2563    2592    2594    2623
        0   60101   40101   10101   20101   30101
 
     2594    1694    2564    2593    2595    2624
        0   60101   40101   10101   20101   30101
 
     2595    1695    2565    2594    2596    2625
        0   60101   40101   10101   20101   30101
 
     2596    1696    2566    2595    2597    2626
        0   60101   40101   10101   20101   30101
 
     2597    1697    2567    2596    2598    2627
        0   60101   40101   10101   20101   30101
 
     2598    1698    2568    2597    2599    2628
        0   60101   40101   10101   20101   30101
 
     2599    1699    2569    2598    2600    2629
        0   60101   40101   10101   20101   30101
 
     2600    1700    2570    2599    2601    2630
        0   60101   40101   10101   20101   30101
 
     2601    1701    2571    2600    2602    2631
        0   60101   40101   10101   20101   30101
 
     2602    1702    2572    2601    2603    2632
        0   60101   40101   10101   20101   30101
 
     2603    1703    2573    2602    2604    2633
        0   60101   40101   10101   20101   30101
 
     2604    1704    2574    2603    2605    2634
        0   60101   40101   10101   20101   30101
 
     2605    1705    2575    2604    2606    2635
        0   60101   40101   10101   20101   30101
 
     2606    1706    2576    2605    2607    2636
        0   60101   40101   10101   20101   30101
 
     2607    1707    2577    2606    2608    2637
        0   60101   40101   10101   20101   30101
 
     2608    1708    2578    2607    2609    2638
        0   60101   40101   10101   20101   30101
 
     2609    1709    2579    2608    2610    2639
        0   60101   40101   10101   20101   30101
 
     2610    1710    2580    2609    2640
        0   60101   40101   10101   30101
 
     2611    1711    2581    2612    2641
        0   60101   40101   20101   30101
 
     2612    1712    2582    2611    2613    2642
        0   60101   40101   10101   20101   30101
 
     2613    1713    2583    2612    2614    2643
        0   60101   40101   10101   20101   30101
 
     2614    1714    2584    2613    2615    2644
        0   60101   40101   10101   20101   30101
 
     2615    1715    2585    2614    2616    2645
        0   60101   40101   10101   20101   30101
 
     2616    1716    2586    2615    2617    2646
        0   60101   40101   10101   20101   30101
 
     2617    1717    2587    2616    2618    2647
        0   60101   40101   10101   20101   30101
 
     2618    1718    2588    2617    2619    2648
        0   60101   40101   10101   20101   30101
 
     2619    1719    2589    2618    2620    2649
        0   60101   40101   10101   20101   30101
 
     2620    1720    2590    2619    2621    2650
        0   60101   40101   10101   20101   30101
 
     2621    1721    2591    2620    2622    2651
        0   60101   40101   10101   20101   30101
 
     2622    1722    2592    2621    2623    2652
        0   60101   40101   10101   20101   30101
 
     2623    1723    2593    2622    2624    2653
        0   60101   40101   10101   20101   30101
 
     2624    1724    2594    2623    2625    2654
        0   60101   40101   10101   20101   30101
 
     2625    1725    2595    2624    2626    2655
        0   60101   40101   10101   20101   30101
 
     2626    1726    2596    2625    2627    2656
        0   60101   40101   10101   20101   30101
 
     2627    1727    2597    2626    2628    2657
        0   60101   40101   10101   20101   30101
 
     2628    1728    2598    2627    2629    2658
        0   60101   40101   10101   20101   30101
 
     2629    1729    2599    2628    2630    2659
        0   60101   40101   10101   20101   30101
 
     2630    1730    2600    2629    2631    2660
        0   60101   40101   10101   20101   30101
 
     2631    1731    2601    2630    2632    2661
        0   60101   40101   10101   20101   30101
 
     2632    1732    2602    2631    2633    2662
        0   60101   40101   10101   20101   30101
 
     2633    1733    2603    2632    2634    2663
        0   60101   40101   10101   20101   30101
 
     2634    1734    2604    2633    2635    2664
        0   60101   40101   10101   20101   30101
 
     2635    1735    2605    2634    2636    2665
        0   60101   40101   10101   20101   30101
 
     2636    1736    2606    2635    2637    2666
        0   60101   40101   10101   20101   30101
 
     2637    1737    2607    2636    2638    2667
        0   60101   40101   10101   20101   30101
 
     2638    1738    2608    2637    2639    2668
        0   60101   40101   10101   20101   30101
 
     2639    1739    2609    2638    2640    2669
        0   60101   40101   10101   20101   30101
 
     2640    1740    2610    2639    2670
        0   60101   40101   10101   30101
 
     2641    1741    2611    2642    2671
        0   60101   40101   20101   30101
 
     2642    1742    2612    2641    2643    2672
        0   60101   40101   10101   20101   30101
 
     2643    1743    2613    2642    2644    2673
        0   60101   40101   10101   20101   30101
 
     2644    1744    2614    2643    2645    2674
        0   60101   40101   10101   20101   30101
 
     2645    1745    2615    2644    2646    2675
        0   60101   40101   10101   20101   30101
 
     2646    1746    2616    2645    2647    2676
        0   60101   40101   10101   20101   30101
 
     2647    1747    2617    2646    2648    2677
        0   60101   40101   10101   20101   30101
 
     2648    1748    2618    2647    2649    2678
        0   60101   40101   10101   20101   30101
 
     2649    1749    2619    2648    2650    2679
        0   60101   40101   10101   20101   30101
 
     2650    1750    2620    2649    2651    2680
        0   60101   40101   10101   20101   30101
 
     2651    1751    2621    2650    2652    2681
        0   60101   40101   10101   20101   30101
 
     2652    1752    2622    2651    2653    2682
        0   60101   40101   10101   20101   30101
 
     2653    1753    2623    2652    2654    2683
        0   60101   40101   10101   20101   30101
 
     2654    1754    2624    2653    2655    2684
        0   60101   40101   10101   20101   30101
 
     2655    1755    2625    2654    2656    2685
        0   60101   40101   10101   20101   30101
 
     2656    1756    2626    2655    2657    2686
        0   60101   40101   10101   20101   30101
 
     2657    1757    2627    2656    2658    2687
        0   60101   40101   10101   20101   30101
 
     2658    1758    2628    2657    2659    2688
        0   60101   40101   10101   20101   30101
 
     2659    1759    2629    2658    2660    2689
        0   60101   40101   10101   20101   30101
 
     2660    1760    2630    2659    2661    2690
        0   60101   40101   10101   20101   30101
 
     2661    1761    2631    2660    2662    2691
        0   60101   40101   10101   20101   30101
 
     2662    1762    2632    2661    2663    2692
        0   60101   40101   10101   20101   30101
 
     2663    1763    2633    2662    2664    2693
        0   60101   40101   10101   20101   30101
 
     2664    1764    2634    2663    2665    2694
        0   60101   40101   10101   20101   30101
 
     2665    1765    2635    2664    2666    2695
        0   60101   40101   10101   20101   30101
 
     2666    1766    2636    2665    2667    2696
        0   60101   40101   10101   20101   30101
 
     2667    1767    2637    2666    2668    2697
        0   60101   40101   10101   20101   30101
 
     2668    1768    2638    2667    2669    2698
        0   60101   40101   10101   20101   30101
 
     2669    1769    2639    2668    2670    2699
        0   60101   40101   10101   20101   30101
 
     2670    1770    2640    2669    2700
        0   60101   40101   10101   30101
 
     2671    1771    2641    2672
        0   60101   40101   20101
 
     2672    1772    2642    2671    2673
        0   60101   40101   10101   20101
 
     2673    1773    2643    2672    2674
        0   60101   40101   10101   20101
 
     2674    1774    2644    2673    2675
        0   60101   40101   10101   20101
 
     2675    1775    2645    2674    2676
        0   60101   40101   10101   20101
 
     2676    1776    2646    2675    2677
        0   60101   40101   10101   20101
 
     2677    1777    2647    2676    2678
        0   60101   40101   10101   20101
 
     2678    1778    2648    2677    2679
        0   60101   40101   10101   20101
 
     2679    1779    2649    2678    2680
        0   60101   40101   10101   20101
 
     2680    1780    2650    2679    2681
        0   60101   40101   10101   20101
 
     2681    1781    2651    2680    2682
        0   60101   40101   10101   20101
 
     2682    1782    2652    2681    2683
        0   60101   40101   10101   20101
 
     2683    1783    2653    2682    2684
        0   60101   40101   10101   20101
 
     2684    1784    2654    2683    2685
        0   60101   40101   10101   20101
 
     2685    1785    2655    2684    2686
        0   60101   40101   10101   20101
 
     2686    1786    2656    2685    2687
        0   60101   40101   10101   20101
 
     2687    1787    2657    2686    2688
        0   60101   40101   10101   20101
 
     2688    1788    2658    2687    2689
        0   60101   40101   10101   20101
 
     2689    1789    2659    2688    2690
        0   60101   40101   10101   20101
 
     2690    1790    2660    2689    2691
        0   60101   40101   10101   20101
 
     2691    1791    2661    2690    2692
        0   60101   40101   10101   20101
 
     2692    1792    2662    2691    2693
        0   60101   40101   10101   20101
 
     2693    1793    2663    2692    2694
        0   60101   40101   10101   20101
 
     2694    1794    2664    2693    2695
        0   60101   40101   10101   20101
 
     2695    1795    2665    2694    2696
        0   60101   40101   10101   20101
 
     2696    1796    2666    2695    2697
        0   60101   40101   10101   20101
 
     2697    1797    2667    2696    2698
        0   60101   40101   10101   20101
 
     2698    1798    2668    2697    2699
        0   60101   40101   10101   20101
 
     2699    1799    2669    2698    2700
        0   60101   40101   10101   20101
 
     2700    1800    2670    2699
        0   60101   40101   10101
 
Allocate budget reader component.
Open budget file in budget reader.
Allocate head reader component.
Open head file in head reader component.
Allocate MODPATH basic data component.
Read MODPATH basic data component.
Read the remainder of the MODPATH simulation data component.
Allocate particle tracking engine component.
Compute range of time steps. Prepare for time step loop                                                                             
Begin TIME_STEP_LOOP
Compute TSMAX                                                                                                                       
Begin TRACKING_INTERVAL_LOOP
Exit TRACKING_INTERVAL_LOOP
Exit TIME_STEP_LOOP
Write endpoint file.
Consolidating pathline segments.
Begin memory deallocation.
Memory deallocation complete.
